ELEM  O N AR H
END
SPECIES ! structure, source of thermo-data, source of transport 
H  ! burcat, chemkin
H2 ! burcat, chemkin
O   O2    H2O    OH    H2O2    HO2
AR ! burcat, chemkin 
N2 ! burcat, chemkin 

END
REACTIONS

!*********************************************************************
!
! A.KONNOV's detailed reaction mechanism   h/o 
!
!*********************************************************************            
H+H+M=H2+M                     7.000E+17     -1.0         0.0
 H2/0.0/ N2/0.0/ H/0.0/ H2O/14.3/ ! CO/3.0/ CO2/3.0/ 
H+H+H2=H2+H2                   1.000E+17     -0.6         0.0 
H+H+N2=H2+N2                   5.400E+18     -1.3         0.0 
H+H+H=H2+H                     3.200E+15      0.0         0.0 
O+O+M=O2+M                     1.000E+17     -1.0         0.0 
 O/28.8/ O2/8.0/ N2/2.0/ H2O/5.0/ ! NO/2.0/ N/2.0/ 
O+H+M=OH+M                     6.750E+18     -1.0         0.0 
 H2O/5.0/ 
!H+OH+M=H2O+M                   2.200E+22     -2.0         0.0 
!    H2O/6.4/ AR/0.38/ ! CO2/1.9/ 
H2O+M=H+OH+M           6.06E+27 -3.312  120770.
H2O /0/ H2/3/ N2 /2/ O2 /1.5/ !CH4/7/ CO2 /4/
H2O+H2O=H+OH+H2O       1.E+26  -2.44 120160.
H+O2(+M)=HO2(+M)               4.660E+12      0.44        0.0 
    LOW /5.70E+19 -1.4 0.0/ 
    TROE /0.5 100000 10/
 AR/0.0/ H2O/0.0/ O2/0.0/ H2/1.5/ ! CO2/2.4/ CH4/3.5/ !HE/0.57/ 
H+O2(+AR)=HO2(+AR)             4.660E+12      0.44        0.0
    LOW /7.430E+18 -1.2  0.0/
    TROE /0.5 10 100000/ 
H+O2(+O2)=HO2(+O2)             4.660E+12      0.44        0.0
    LOW /5.690E+18 -1.094 0.0/ 
    TROE /0.5 100000 10/
H+O2(+H2O)=HO2(+H2O)           9.060E+12      0.2         0.0
    LOW /3.670E+19 -1.0 0.0/ 
    TROE /0.8 10 100000/ 
OH+OH(+M)=H2O2(+M)        1E+14 -0.37 0.!     7.200E+13     -0.37        0.0 
    LOW /2.38E+19 -0.8 0. / !2.2E+19 -0.76 0.0/ 
    TROE /0.5 100000 10/
    H2O/0.0/
OH+OH(+H2O)=H2O2(+H2O)  1E+14 -0.37 0.!       7.200E+13     -0.37        0.0 
    LOW /1.45E+18 0.0 0.0/ 
    TROE /0.5 100000 10/
O+H2=OH+H                   5.060E+04      2.67     6290.0 
H+O2=OH+O      2.06E+14 -0.097     15022.!            9.750E+13      0.0     14850.0 
H2+OH=H2O+H                    2.140E+08      1.52     3450.0 
OH+OH=H2O+O   3.34E+04 2.42  -1930.  !              3.570E+04      2.4     -2110.0 
HO2+O=OH+O2                    1.630E+13      0.0      -445.0 
H+HO2=OH+OH                    1.900E+14      0.0       875.0 !me
H+HO2=H2O+O   1.45E+12 0. 0.!                 3.000E+13      0.0      1720.0 
H+HO2=H2+O2   1.05E+14 0. 2047.!                 8.450E+11      0.65     1241.0 
H2+O2=OH+OH                    2.040E+12      0.44    69155.0 
HO2+OH=H2O+O2      2.89e13 0. -500!            6.000E+18     -2.0         0.0 
    DUPLICATE
HO2+OH=H2O+O2                   9.270E+15      0.0     17500.0 
    DUPLICATE
HO2+HO2=H2O2+O2                1.030E+14      0.0     11040.0 
    DUPLICATE
HO2+HO2=H2O2+O2                1.940E+11      0.0     -1409.0 
    DUPLICATE
HO2+HO2+M=H2O2+O2+M  6.84E+14 0. -1950.
H2O2+H=HO2+H2                  1.700E+12      0.0      3755.0 
H2O2+H=H2O+OH                  1.000E+13      0.0      3575.0 
H2O2+O=HO2+OH    9.55E+6 2. 3970.!              2.800E+13      0.0      6400.0 
H2O2+OH=HO2+H2O                2.000E+12      0.0       427.0 
    DUPLICATE
H2O2+OH=HO2+H2O                1.700E+18      0.0     29400.0 
    DUPLICATE 

END

