"""
****************************************************************************
 A 143-species skeletal mechanism for iso-octane oxidation

 Reference:

 Chun Sang Yoo, Zhaoyu Luo, Tianfeng Lu, Hongjip Kim, Jacqueline H. Chen,
  DNS study of ignition characteristics of a lean iso-octane/air mixture
  under HCCI and SACI conditions,
  Proc. Combust. Inst., 34(2) 29852993, 2013.

****************************************************************************

"""

units(length='cm', time='s', quantity='mol', act_energy='cal/mol')

ideal_gas(name='gas',
          elements="C H O N",
          species="""H              H2             O
                     O2             OH             H2O
                     HO2            H2O2           CO
                     CO2            CH2O           HCO
                     HO2CHO         O2CHO          OCHO
                     CH2OH          CH3O           CH3O2H
                     CH3O2          CH4            CH3
                     CH2            CH2(S)         C2H6
                     C2H5           C2H4           C2H3
                     C2H2           CH3CHO         CH3CO
                     CH2CO          HCCO           C2H5O
                     C2H5O2         C2H3O1-2       CH3COCH3
                     CH3COCH2       C2H3CHO        C2H3CO
                     C2H5CO         IC3H7          C3H6
                     C3H5-A         C3H5-S         C3H5-T
                     C3H4-P         C3H4-A         C3H3
                     C3H2           C3H5O          C3H6OOH2-1
                     C3H6OOH2-1O2   IC3H7O2        C3KET21
                     CH3CHCO        SC4H9          IC4H9
                     TC4H9          IC4H8          IC4H7
                     TC4H9O2        IC4H9O2        IC4H8O2H-I
                     TC4H9O         TC4H9O2H       IC4H7O
                     IC3H7CHO       TC3H6CHO       IC4H8OOH-IO2
                     IC4KETII       IC4H7OH        IC4H6OH
                     IC3H5CHO       IC3H5CO        TC3H6OCHO
                     IC3H6CO        IC4H7OOH       TC3H6O2CHO
                     CH2CCH2OH      BC5H11         AC5H10
                     BC5H10         CC5H10         AC5H9-C
                     CC5H9-B        AC5H9O-C       CC5H9O-B
                     CH3CHCHO       BC6H12         CC6H12
                     C5H10-2        IC4H7-I1       YC7H15
                     XC7H14         YC7H14         XC7H13-Z
                     YC7H13-Y2      YC7H13O-Y2     YC7H15O2
                     ACC6H10        ACC6H9-A       ACC6H9-D
                     NEOC5H11       NEOC5H11O2     NEOC5H10OOH
                     TC4H9CHO       TC4H9CO        IC8H18
                     AC8H17         BC8H17         CC8H17
                     DC8H17         IC8H16         JC8H16
                     AC8H17O2       BC8H17O2       CC8H17O2
                     DC8H17O2       CC8H17O2H      CC8H17O
                     AC8H16OOH-A    AC8H16OOH-B    AC8H16OOH-C
                     BC8H16OOH-A    BC8H16OOH-D    CC8H16OOH-A
                     DC8H16OOH-C    DC8H16OOH-B    IC8ETERAB
                     IC8ETERAC      IC8ETERBD      AC8H16OOH-BO2
                     BC8H16OOH-AO2  BC8H16OOH-DO2  CC8H16OOH-AO2
                     DC8H16OOH-BO2  IC8KETAB       IC8KETBA
                     IC8KETBD       IC8KETDB       IC3H7COC3H6-T
                     TC4H9COC2H4S   N2""",
          reactions='all',
          transport='Mix',
          initial_state=state(temperature=300.0, pressure=OneAtm))

#-------------------------------------------------------------------------------
# Species data
#-------------------------------------------------------------------------------

species(name='H',
        atoms='H:1',
        thermo=(NASA([300.00, 1000.00],
                     [ 2.50000000E+00,  0.00000000E+00,  0.00000000E+00,
                       0.00000000E+00,  0.00000000E+00,  2.54716300E+04,
                      -4.60117600E-01]),
                NASA([1000.00, 5000.00],
                     [ 2.50000000E+00,  0.00000000E+00,  0.00000000E+00,
                       0.00000000E+00,  0.00000000E+00,  2.54716300E+04,
                      -4.60117600E-01])),
        transport=gas_transport(geom='atom',
                                diam=2.05,
                                well_depth=145.0),
        note='120186')

species(name='H2',
        atoms='H:2',
        thermo=(NASA([300.00, 1000.00],
                     [ 3.29812400E+00,  8.24944200E-04, -8.14301500E-07,
                      -9.47543400E-11,  4.13487200E-13, -1.01252100E+03,
                      -3.29409400E+00]),
                NASA([1000.00, 5000.00],
                     [ 2.99142300E+00,  7.00064400E-04, -5.63382900E-08,
                      -9.23157800E-12,  1.58275200E-15, -8.35034000E+02,
                      -1.35511000E+00])),
        transport=gas_transport(geom='linear',
                                diam=2.92,
                                well_depth=38.0,
                                polar=0.79,
                                rot_relax=280.0),
        note='121286')

species(name='O',
        atoms='O:1',
        thermo=(NASA([300.00, 1000.00],
                     [ 2.94642900E+00, -1.63816600E-03,  2.42103200E-06,
                      -1.60284300E-09,  3.89069600E-13,  2.91476400E+04,
                       2.96399500E+00]),
                NASA([1000.00, 5000.00],
                     [ 2.54206000E+00, -2.75506200E-05, -3.10280300E-09,
                       4.55106700E-12, -4.36805200E-16,  2.92308000E+04,
                       4.92030800E+00])),
        transport=gas_transport(geom='atom',
                                diam=2.75,
                                well_depth=80.0),
        note='120186')

species(name='O2',
        atoms='O:2',
        thermo=(NASA([300.00, 1000.00],
                     [ 3.21293600E+00,  1.12748600E-03, -5.75615000E-07,
                       1.31387700E-09, -8.76855400E-13, -1.00524900E+03,
                       6.03473800E+00]),
                NASA([1000.00, 5000.00],
                     [ 3.69757800E+00,  6.13519700E-04, -1.25884200E-07,
                       1.77528100E-11, -1.13643500E-15, -1.23393000E+03,
                       3.18916600E+00])),
        transport=gas_transport(geom='linear',
                                diam=3.458,
                                well_depth=107.4,
                                polar=1.6,
                                rot_relax=3.8),
        note='121386')

species(name='OH',
        atoms='H:1 O:1',
        thermo=(NASA([300.00, 1710.00],
                     [ 3.41896226E+00,  3.19255801E-04, -3.08292717E-07,
                       3.64407494E-10, -1.00195479E-13,  3.45264448E+03,
                       2.54433372E+00]),
                NASA([1710.00, 5000.00],
                     [ 2.85376040E+00,  1.02994334E-03, -2.32666477E-07,
                       1.93750704E-11, -3.15759847E-16,  3.69949720E+03,
                       5.78756825E+00])),
        transport=gas_transport(geom='linear',
                                diam=2.75,
                                well_depth=80.0),
        note='7/13/0RUCIC')

species(name='H2O',
        atoms='H:2 O:1',
        thermo=(NASA([300.00, 1000.00],
                     [ 3.38684200E+00,  3.47498200E-03, -6.35469600E-06,
                       6.96858100E-09, -2.50658800E-12, -3.02081100E+04,
                       2.59023300E+00]),
                NASA([1000.00, 5000.00],
                     [ 2.67214600E+00,  3.05629300E-03, -8.73026000E-07,
                       1.20099600E-10, -6.39161800E-15, -2.98992100E+04,
                       6.86281700E+00])),
        transport=gas_transport(geom='nonlinear',
                                diam=2.605,
                                well_depth=572.4,
                                dipole=1.844,
                                rot_relax=4.0),
        note='20387')

species(name='HO2',
        atoms='H:1 O:2',
        thermo=(NASA([200.00, 1000.00],
                     [ 4.30179801E+00, -4.74912051E-03,  2.11582891E-05,
                      -2.42763894E-08,  9.29225124E-12,  2.94808040E+02,
                       3.71666245E+00]),
                NASA([1000.00, 3500.00],
                     [ 4.01721090E+00,  2.23982013E-03, -6.33658150E-07,
                       1.14246370E-10, -1.07908535E-14,  1.11856713E+02,
                       3.78510215E+00])),
        transport=gas_transport(geom='nonlinear',
                                diam=3.458,
                                well_depth=107.4,
                                rot_relax=1.0),
        note='L5/89')

species(name='H2O2',
        atoms='H:2 O:2',
        thermo=(NASA([300.00, 1000.00],
                     [ 3.38875400E+00,  6.56922600E-03, -1.48501300E-07,
                      -4.62580600E-09,  2.47151500E-12, -1.76631500E+04,
                       6.78536300E+00]),
                NASA([1000.00, 5000.00],
                     [ 4.57316700E+00,  4.33613600E-03, -1.47468900E-06,
                       2.34890400E-10, -1.43165400E-14, -1.80069600E+04,
                       5.01137000E-01])),
        transport=gas_transport(geom='nonlinear',
                                diam=3.458,
                                well_depth=107.4,
                                rot_relax=3.8),
        note='120186')

species(name='CO',
        atoms='C:1 O:1',
        thermo=(NASA([300.00, 1429.00],
                     [ 3.19036352E+00,  8.94419972E-04, -3.24927563E-08,
                      -1.04599967E-10,  2.41965693E-14, -1.42869054E+04,
                       5.33277914E+00]),
                NASA([1429.00, 5000.00],
                     [ 3.11216890E+00,  1.15948283E-03, -3.38480362E-07,
                       4.41403098E-11, -2.12862228E-15, -1.42718539E+04,
                       5.71725177E+00])),
        transport=gas_transport(geom='linear',
                                diam=3.65,
                                well_depth=98.1,
                                polar=1.95,
                                rot_relax=1.8),
        note='29/11/04')

species(name='CO2',
        atoms='C:1 O:2',
        thermo=(NASA([300.00, 1380.00],
                     [ 2.57930490E+00,  8.24684987E-03, -6.42716047E-06,
                       2.54637024E-09, -4.12030443E-13, -4.84162830E+04,
                       8.81141041E+00]),
                NASA([1380.00, 5000.00],
                     [ 5.18953018E+00,  2.06006476E-03, -7.33575324E-07,
                       1.17004374E-10, -6.91729215E-15, -4.93178953E+04,
                      -5.18289303E+00])),
        transport=gas_transport(geom='linear',
                                diam=3.763,
                                well_depth=244.0,
                                polar=2.65,
                                rot_relax=2.1),
        note='29/11/04')

species(name='CH2O',
        atoms='C:1 H:2 O:1',
        thermo=(NASA([300.00, 1486.00],
                     [ 3.00754197E+00,  3.04729496E-03,  5.25109246E-06,
                      -5.12019281E-09,  1.27133795E-12, -1.41188397E+04,
                       8.10120233E+00]),
                NASA([1486.00, 5000.00],
                     [ 4.02068394E+00,  5.09903417E-03, -1.76430480E-06,
                       2.76025879E-10, -1.60998042E-14, -1.49287258E+04,
                       1.06525547E+00])),
        transport=gas_transport(geom='nonlinear',
                                diam=3.59,
                                well_depth=498.0,
                                rot_relax=2.0),
        note='6/29/04RUSCI')

species(name='HCO',
        atoms='H:1 C:1 O:1',
        thermo=(NASA([300.00, 1690.00],
                     [ 3.81049965E+00,  8.13269825E-04,  3.13164701E-06,
                      -2.39478268E-09,  5.06894554E-13,  4.03859901E+03,
                       4.94843165E+00]),
                NASA([1690.00, 5000.00],
                     [ 3.44148164E+00,  3.52157719E-03, -1.24136118E-06,
                       1.97328644E-10, -1.16538616E-14,  3.97409684E+03,
                       6.24593456E+00])),
        transport=gas_transport(geom='nonlinear',
                                diam=3.59,
                                well_depth=498.0),
        note='29/11/04')

species(name='HO2CHO',
        atoms='C:1 H:2 O:3',
        thermo=(NASA([300.00, 1378.00],
                     [ 2.42464726E+00,  2.19706380E-02, -1.68705546E-05,
                       6.25612194E-09, -9.11645843E-13, -3.54828006E+04,
                       1.75027796E+01]),
                NASA([1378.00, 5000.00],
                     [ 9.87503878E+00,  4.64663708E-03, -1.67230522E-06,
                       2.68624413E-10, -1.59595232E-14, -3.80502496E+04,
                      -2.24939155E+01])),
        transport=gas_transport(geom='nonlinear',
                                diam=3.97,
                                well_depth=436.0,
                                rot_relax=2.0),
        note='6/26/95THERM')

species(name='O2CHO',
        atoms='C:1 H:1 O:3',
        thermo=(NASA([300.00, 1368.00],
                     [ 3.96059309E+00,  1.06002279E-02, -5.25713351E-06,
                       1.01716726E-09, -2.87487602E-14, -1.73599383E+04,
                       1.17807483E+01]),
                NASA([1368.00, 5000.00],
                     [ 7.24075139E+00,  4.63312951E-03, -1.63693995E-06,
                       2.59706693E-10, -1.52964699E-14, -1.87027618E+04,
                      -6.49547212E+00])),
        transport=gas_transport(geom='nonlinear',
                                diam=3.97,
                                well_depth=436.0,
                                rot_relax=2.0),
        note='6/26/95THERM')

species(name='OCHO',
        atoms='C:1 H:1 O:2',
        thermo=(NASA([300.00, 1412.00],
                     [ 1.42991854E+00,  1.22803284E-02, -5.28461096E-06,
                      -3.73026551E-10,  5.07953571E-13, -1.62042814E+04,
                       1.80411779E+01]),
                NASA([1412.00, 5000.00],
                     [ 6.49815560E+00,  3.22319012E-03, -1.17099595E-06,
                       1.89272918E-10, -1.12937000E-14, -1.81679042E+04,
                      -1.00412613E+01])),
        transport=gas_transport(geom='nonlinear',
                                diam=3.59,
                                well_depth=498.0,
                                rot_relax=2.0),
        note='9/27/5THERM')

species(name='CH2OH',
        atoms='C:1 H:3 O:1',
        thermo=(NASA([300.00, 1399.00],
                     [ 3.05674228E+00,  1.19335634E-02, -8.72501303E-06,
                       3.82781054E-09, -7.22887951E-13, -2.83140190E+03,
                       8.98878133E+00]),
                NASA([1399.00, 5000.00],
                     [ 5.41875913E+00,  5.66185244E-03, -1.87471136E-06,
                       2.84441938E-10, -1.62299798E-14, -3.61475540E+03,
                      -3.49277963E+00])),
        transport=gas_transport(geom='nonlinear',
                                diam=3.69,
                                well_depth=417.0,
                                dipole=1.7,
                                rot_relax=2.0),
        note='2/25/4THERM')

species(name='CH3O',
        atoms='C:1 H:3 O:1',
        thermo=(NASA([300.00, 1509.00],
                     [ 2.23058023E+00,  8.53178586E-03,  1.02166624E-06,
                      -3.41046916E-09,  9.94691038E-13,  9.45939708E+02,
                       1.28377569E+01]),
                NASA([1509.00, 5000.00],
                     [ 4.64787019E+00,  6.90830683E-03, -2.34404776E-06,
                       3.61994570E-10, -2.09253541E-14, -2.99208881E+02,
                      -1.57740193E+00])),
        transport=gas_transport(geom='nonlinear',
                                diam=3.69,
                                well_depth=417.0,
                                dipole=1.7,
                                rot_relax=2.0),
        note='8/9/4THERM')

species(name='CH3O2H',
        atoms='C:1 H:4 O:2',
        thermo=(NASA([300.00, 1367.00],
                     [ 2.83880024E+00,  1.86096249E-02, -8.48165412E-06,
                       1.00387451E-09,  1.71612429E-13, -1.74033753E+04,
                       1.16092433E+01]),
                NASA([1367.00, 5000.00],
                     [ 8.80409289E+00,  8.09427218E-03, -2.85843274E-06,
                       4.53369754E-10, -2.66980707E-14, -1.98512174E+04,
                      -2.17000591E+01])),
        transport=gas_transport(geom='nonlinear',
                                diam=3.626,
                                well_depth=481.8,
                                rot_relax=1.0),
        note='1/14/5THERM')

species(name='CH3O2',
        atoms='C:1 H:3 O:2',
        thermo=(NASA([300.00, 1365.00],
                     [ 3.80497590E+00,  9.80784660E-03, -3.90940624E-07,
                      -2.23072602E-09,  6.43310820E-13, -4.55625796E+02,
                       7.81789100E+00]),
                NASA([1365.00, 5000.00],
                     [ 6.34718801E+00,  7.92089358E-03, -2.76601913E-06,
                       4.35360631E-10, -2.54984762E-14, -1.83436055E+03,
                      -7.42552545E+00])),
        transport=gas_transport(geom='nonlinear',
                                diam=3.626,
                                well_depth=481.8,
                                rot_relax=1.0),
        note='1/14/5THERM')

species(name='CH4',
        atoms='H:4 C:1',
        thermo=(NASA([300.00, 1462.00],
                     [ 3.72113020E+00, -2.50293289E-03,  1.90246534E-05,
                      -1.46871253E-08,  3.43791152E-12, -1.01424099E+04,
                       1.22776596E+00]),
                NASA([1462.00, 5000.00],
                     [ 4.09617653E+00,  7.44330845E-03, -2.63871900E-06,
                       4.19577604E-10, -2.47508050E-14, -1.13835704E+04,
                      -4.67561383E+00])),
        transport=gas_transport(geom='nonlinear',
                                diam=3.746,
                                well_depth=141.4,
                                polar=2.6,
                                rot_relax=13.0),
        note='29/11/04')

species(name='CH3',
        atoms='C:1 H:3',
        thermo=(NASA([300.00, 1389.00],
                     [ 3.43858162E+00,  4.07752664E-03,  3.19830994E-07,
                      -9.47669390E-10,  2.21828166E-13,  1.63164018E+04,
                       2.52807406E+00]),
                NASA([1389.00, 5000.00],
                     [ 3.51281376E+00,  5.11412613E-03, -1.67632050E-06,
                       2.52495174E-10, -1.43302923E-14,  1.61238027E+04,
                       1.62436112E+00])),
        transport=gas_transport(geom='linear',
                                diam=3.8,
                                well_depth=144.0))

species(name='CH2',
        atoms='C:1 H:2',
        thermo=(NASA([250.00, 1000.00],
                     [ 3.76223700E+00,  1.15981900E-03,  2.48958500E-07,
                       8.80083600E-10, -7.33243500E-13,  4.53679100E+04,
                       1.71257800E+00]),
                NASA([1000.00, 4000.00],
                     [ 3.63640800E+00,  1.93305700E-03, -1.68701600E-07,
                      -1.00989900E-10,  1.80825600E-14,  4.53413400E+04,
                       2.15656100E+00])),
        transport=gas_transport(geom='linear',
                                diam=3.8,
                                well_depth=144.0),
        note='120186')

species(name='CH2(S)',
        atoms='C:1 H:2',
        thermo=(NASA([300.00, 1000.00],
                     [ 3.97126500E+00, -1.69908900E-04,  1.02536900E-06,
                       2.49255100E-09, -1.98126600E-12,  4.98936800E+04,
                       5.75320700E-02]),
                NASA([1000.00, 4000.00],
                     [ 3.55288900E+00,  2.06678800E-03, -1.91411600E-07,
                      -1.10467300E-10,  2.02135000E-14,  4.98497500E+04,
                       1.68657000E+00])),
        transport=gas_transport(geom='linear',
                                diam=3.8,
                                well_depth=144.0),
        note='31287')

species(name='C2H6',
        atoms='C:2 H:6',
        thermo=(NASA([300.00, 1383.00],
                     [ 4.78623203E-02,  2.40569127E-02, -1.15155912E-05,
                       2.48666238E-09, -1.78343944E-13, -1.10923014E+04,
                       2.06544071E+01]),
                NASA([1383.00, 5000.00],
                     [ 6.05972630E+00,  1.30382837E-02, -4.48103942E-06,
                       6.97762095E-10, -4.05606353E-14, -1.35751226E+04,
                      -1.28608001E+01])),
        transport=gas_transport(geom='nonlinear',
                                diam=4.35,
                                well_depth=247.5,
                                rot_relax=1.5),
        note='8/4/4THERM')

species(name='C2H5',
        atoms='C:2 H:5',
        thermo=(NASA([300.00, 1387.00],
                     [ 1.32730217E+00,  1.76656753E-02, -6.14926558E-06,
                      -3.01143466E-10,  4.38617775E-13,  1.34284028E+04,
                       1.71789216E+01]),
                NASA([1387.00, 5000.00],
                     [ 5.88784390E+00,  1.03076793E-02, -3.46844396E-06,
                       5.32499257E-10, -3.06512651E-14,  1.15065499E+04,
                      -8.49651771E+00])),
        transport=gas_transport(geom='nonlinear',
                                diam=4.35,
                                well_depth=247.5,
                                rot_relax=1.5),
        note='8/4/4THERM')

species(name='C2H4',
        atoms='C:2 H:4',
        thermo=(NASA([300.00, 1395.00],
                     [ 2.33879687E-01,  1.96334647E-02, -1.16833214E-05,
                       3.64246453E-09, -4.77442715E-13,  5.46489338E+03,
                       1.97084228E+01]),
                NASA([1395.00, 5000.00],
                     [ 5.22176372E+00,  8.96137303E-03, -3.04868886E-06,
                       4.71465524E-10, -2.72739592E-14,  3.60389679E+03,
                      -7.47789234E+00])),
        transport=gas_transport(geom='nonlinear',
                                diam=3.496,
                                well_depth=238.4,
                                rot_relax=1.5),
        note='10/4/5THERM')

species(name='C2H3',
        atoms='C:2 H:3',
        thermo=(NASA([300.00, 1395.00],
                     [ 1.25329724E+00,  1.56258370E-02, -1.07803879E-05,
                       4.18054634E-09, -7.01360362E-13,  3.50734773E+04,
                       1.71341661E+01]),
                NASA([1395.00, 5000.00],
                     [ 5.07331248E+00,  6.58316278E-03, -2.23762924E-06,
                       3.45803379E-10, -1.99940490E-14,  3.37234748E+04,
                      -3.39792712E+00])),
        transport=gas_transport(geom='nonlinear',
                                diam=3.721,
                                well_depth=265.3,
                                rot_relax=1.0),
        note='10/4/5THERM')

species(name='C2H2',
        atoms='C:2 H:2',
        thermo=(NASA([300.00, 1407.00],
                     [ 2.06742667E+00,  1.46568506E-02, -1.52947063E-05,
                       8.30965761E-09, -1.72932175E-12,  2.59578589E+04,
                       8.62758672E+00]),
                NASA([1407.00, 5000.00],
                     [ 4.98265164E+00,  4.25992930E-03, -1.37483523E-06,
                       2.04717964E-10, -1.15191740E-14,  2.52697118E+04,
                      -5.81321385E+00])),
        transport=gas_transport(geom='linear',
                                diam=3.721,
                                well_depth=265.3,
                                rot_relax=2.5),
        note='10/4/5THERM')

species(name='CH3CHO',
        atoms='C:2 H:4 O:1',
        thermo=(NASA([300.00, 1377.00],
                     [ 1.77060035E+00,  1.84475161E-02, -7.24138162E-06,
                       2.34364561E-10,  3.35543891E-13, -2.18078850E+04,
                       1.65023437E+01]),
                NASA([1377.00, 5000.00],
                     [ 6.98518866E+00,  9.67897787E-03, -3.31841954E-06,
                       5.16025901E-10, -2.99725903E-14, -2.39807279E+04,
                      -1.27484852E+01])),
        transport=gas_transport(geom='nonlinear',
                                diam=3.97,
                                well_depth=436.0,
                                rot_relax=2.0),
        note='8/10/4THERM')

species(name='CH3CO',
        atoms='C:2 H:3 O:1',
        thermo=(NASA([300.00, 1371.00],
                     [ 2.52884150E+00,  1.37152173E-02, -4.28607476E-06,
                      -7.71684278E-10,  4.83836380E-13, -3.02546532E+03,
                       1.40340315E+01]),
                NASA([1371.00, 5000.00],
                     [ 6.56682466E+00,  7.55308669E-03, -2.59966784E-06,
                       4.05334994E-10, -2.35876164E-14, -4.76690401E+03,
                      -8.83301965E+00])),
        transport=gas_transport(geom='nonlinear',
                                diam=3.97,
                                well_depth=436.0,
                                rot_relax=2.0),
        note='8/10/4THERM')

species(name='CH2CO',
        atoms='C:2 H:2 O:1',
        thermo=(NASA([300.00, 1000.00],
                     [ 2.97497100E+00,  1.21187100E-02, -2.34504600E-06,
                      -6.46668500E-09,  3.90564900E-12, -7.63263700E+03,
                       8.67355300E+00]),
                NASA([1000.00, 5000.00],
                     [ 6.03881700E+00,  5.80484000E-03, -1.92095400E-06,
                       2.79448500E-10, -1.45886800E-14, -8.58340200E+03,
                      -7.65758100E+00])),
        transport=gas_transport(geom='nonlinear',
                                diam=4.191,
                                well_depth=314.3,
                                dipole=1.4,
                                rot_relax=2.0),
        note='121686')

species(name='HCCO',
        atoms='H:1 C:2 O:1',
        thermo=(NASA([300.00, 1000.00],
                     [ 5.04796500E+00,  4.45347800E-03,  2.26828300E-07,
                      -1.48209500E-09,  2.25074200E-13,  1.96589200E+04,
                       4.81843900E-01]),
                NASA([1000.00, 4000.00],
                     [ 6.75807300E+00,  2.00040000E-03, -2.02760700E-07,
                      -1.04113200E-10,  1.96516500E-14,  1.90151300E+04,
                      -9.07126200E+00])),
        transport=gas_transport(geom='nonlinear',
                                diam=2.5,
                                well_depth=150.0,
                                rot_relax=1.0),
        note='32387')

species(name='C2H5O',
        atoms='C:2 H:5 O:1',
        thermo=(NASA([300.00, 1393.00],
                     [ 2.87429022E-01,  2.86500918E-02, -1.83857008E-05,
                       6.03096179E-09, -8.04562643E-13, -3.35717377E+03,
                       2.37513898E+01]),
                NASA([1393.00, 5000.00],
                     [ 8.23717244E+00,  1.10885879E-02, -3.78808372E-06,
                       5.87613473E-10, -3.40712889E-14, -6.22948597E+03,
                      -1.93190543E+01])),
        transport=gas_transport(geom='nonlinear',
                                diam=4.41,
                                well_depth=470.6,
                                rot_relax=1.5),
        note='8/9/4THERM')

species(name='C2H5O2',
        atoms='C:2 H:5 O:2',
        thermo=(NASA([300.00, 1387.00],
                     [ 2.58630333E+00,  2.61836362E-02, -1.68306193E-05,
                       6.08749295E-09, -9.57302040E-13, -4.58588992E+03,
                       1.50486289E+01]),
                NASA([1387.00, 5000.00],
                     [ 8.77641329E+00,  1.18767163E-02, -3.87683050E-06,
                       5.83210754E-10, -3.31006724E-14, -6.78748703E+03,
                      -1.83119972E+01])),
        transport=gas_transport(geom='nonlinear',
                                diam=4.41,
                                well_depth=470.6,
                                rot_relax=1.5),
        note='1/14/5THERM')

species(name='C2H3O1-2',
        atoms='C:2 H:3 O:1',
        thermo=(NASA([300.00, 1492.00],
                     [-1.62965122E+00,  2.93455486E-02, -2.43737550E-05,
                       1.00522325E-08, -1.61259036E-12,  1.52459425E+04,
                       3.22782741E+01]),
                NASA([1492.00, 5000.00],
                     [ 6.88486471E+00,  6.94720501E-03, -2.23214698E-06,
                       3.32190767E-10, -1.87124555E-14,  1.26442200E+04,
                      -1.23842570E+01])),
        transport=gas_transport(geom='nonlinear',
                                diam=3.97,
                                well_depth=436.0,
                                rot_relax=2.0),
        note='4/3/0THERM')

species(name='CH3COCH3',
        atoms='C:3 H:6 O:1',
        thermo=(NASA([300.00, 1382.00],
                     [ 1.24527408E+00,  2.99760255E-02, -1.40026661E-05,
                       2.16453512E-09,  1.27637295E-13, -2.78348727E+04,
                       2.03682615E+01]),
                NASA([1382.00, 5000.00],
                     [ 9.62674379E+00,  1.45519245E-02, -4.97749457E-06,
                       7.72794591E-10, -4.48367165E-14, -3.11862263E+04,
                      -2.61613449E+01])),
        transport=gas_transport(geom='nonlinear',
                                diam=4.86,
                                well_depth=435.5,
                                rot_relax=1.0),
        note='8/30/4THERM')

species(name='CH3COCH2',
        atoms='C:3 H:5 O:1',
        thermo=(NASA([300.00, 1388.00],
                     [ 1.22337251E+00,  3.24546742E-02, -2.13542518E-05,
                       6.96777735E-09, -8.99160299E-13, -6.59419324E+03,
                       2.05537233E+01]),