!****************************************************************************
! A 143-species skeletal mechanism for iso-octane oxidation
!
! Reference: 
!
! Chun Sang Yoo, Zhaoyu Luo, Tianfeng Lu, Hongjip Kim, Jacqueline H. Chen, 
! “A DNS study of ignition characteristics of a lean iso-octane/air mixture 
!  under HCCI and SACI conditions,” 
!  Proc. Combust. Inst., 34(2) 2985–2993, 2013.
!
!****************************************************************************

ELEMENTS
C H O N
END


SPECIES
H                H2               O                O2               
OH               H2O              HO2              H2O2             
CO               CO2              CH2O             HCO              
HO2CHO           O2CHO            OCHO             CH2OH            
CH3O             CH3O2H           CH3O2            CH4              
CH3              CH2              CH2(S)           C2H6             
C2H5             C2H4             C2H3             C2H2             
CH3CHO           CH3CO            CH2CO            HCCO             
C2H5O            C2H5O2           C2H3O1-2         CH3COCH3         
CH3COCH2         C2H3CHO          C2H3CO           C2H5CO           
IC3H7            C3H6             C3H5-A           C3H5-S           
C3H5-T           C3H4-P           C3H4-A           C3H3             
C3H2             C3H5O            C3H6OOH2-1       C3H6OOH2-1O2     
IC3H7O2          C3KET21          CH3CHCO          SC4H9            
IC4H9            TC4H9            IC4H8            IC4H7            
TC4H9O2          IC4H9O2          IC4H8O2H-I       TC4H9O           
TC4H9O2H         IC4H7O           IC3H7CHO         TC3H6CHO         
IC4H8OOH-IO2     IC4KETII         IC4H7OH          IC4H6OH          
IC3H5CHO         IC3H5CO          TC3H6OCHO        IC3H6CO          
IC4H7OOH         TC3H6O2CHO       CH2CCH2OH        BC5H11           
AC5H10           BC5H10           CC5H10           AC5H9-C          
CC5H9-B          AC5H9O-C         CC5H9O-B         CH3CHCHO         
BC6H12           CC6H12           C5H10-2          IC4H7-I1         
YC7H15           XC7H14           YC7H14           XC7H13-Z         
YC7H13-Y2        YC7H13O-Y2       YC7H15O2         ACC6H10          
ACC6H9-A         ACC6H9-D         NEOC5H11         NEOC5H11O2       
NEOC5H10OOH      TC4H9CHO         TC4H9CO          IC8H18           
AC8H17           BC8H17           CC8H17           DC8H17           
IC8H16           JC8H16           AC8H17O2         BC8H17O2         
CC8H17O2         DC8H17O2         CC8H17O2H        CC8H17O          
AC8H16OOH-A      AC8H16OOH-B      AC8H16OOH-C      BC8H16OOH-A      
BC8H16OOH-D      CC8H16OOH-A      DC8H16OOH-C      DC8H16OOH-B      
IC8ETERAB        IC8ETERAC        IC8ETERBD        AC8H16OOH-BO2    
BC8H16OOH-AO2    BC8H16OOH-DO2    CC8H16OOH-AO2    DC8H16OOH-BO2    
IC8KETAB         IC8KETBA         IC8KETBD         IC8KETDB         
IC3H7COC3H6-T    TC4H9COC2H4S     N2               
END


REACTIONS
!R1
H+O2<=>O+OH 3.547E+15 -0.406 1.660E+04
REV/ 1.027E+13 -0.015 -1.330E+02 /
!R2
O+H2<=>H+OH 5.080E+04 2.670 6.292E+03
REV/ 2.637E+04 2.651 4.880E+03 /
!R3
OH+H2<=>H+H2O 2.160E+08 1.510 3.430E+03
REV/ 2.290E+09 1.404 1.832E+04 /
!R4
O+H2O<=>OH+OH 2.970E+06 2.020 1.340E+04
REV/ 1.454E+05 2.107 -2.904E+03 /
!R5
H2+M<=>H+H+M 4.577E+19 -1.400 1.044E+05
REV/ 1.145E+20 -1.676 8.200E+02 /
H2/2.5/ H2O/12/ CO/1.9/ CO2/3.8/ 
!R6
O2+M<=>O+O+M 4.420E+17 -0.634 1.189E+05
REV/ 6.165E+15 -0.500 0.000E+00 /
H2/2.5/ H2O/12/ CO/1.9/ CO2/3.8/ CH4/2/ C2H6/3/ 
!R7
OH+M<=>O+H+M 9.780E+17 -0.743 1.021E+05
REV/ 4.714E+18 -1.000 0.000E+00 /
H2/2.5/ H2O/12/ CO/1.5/ CO2/2/ CH4/2/ C2H6/3/ 
!R8
H2O+M<=>H+OH+M 1.907E+23 -1.830 1.185E+05
REV/ 4.500E+22 -2.000 0.000E+00 /
H2/.73/ H2O/12/ CH4/2/ C2H6/3/ 
!R9
H+O2(+M)<=>HO2(+M) 1.475E+12 0.600 0.000E+00
LOW / 3.4820E+16 -4.1100E-01 -1.1150E+03 / 
TROE / 5.0000E-01 1.0000E-30 1.0000E+30 1.0000E+10 / !Troe Fall-off reaction
H2/1.3/ H2O/14/ CO/1.9/ CO2/3.8/ CH4/2/ C2H6/3/ 
!R10
HO2+H<=>H2+O2 1.660E+13 0.000 8.230E+02
REV/ 3.166E+12 0.348 5.551E+04 /
!R11
HO2+H<=>OH+OH 7.079E+13 0.000 2.950E+02
REV/ 2.028E+10 0.720 3.684E+04 /
!R12
HO2+O<=>OH+O2 3.250E+13 0.000 0.000E+00
REV/ 3.217E+12 0.329 5.328E+04 /
!R13
HO2+OH<=>H2O+O2 1.973E+10 0.962 -3.284E+02
REV/ 3.989E+10 1.204 6.925E+04 /
!R14
H2O2+O2<=>HO2+HO2 1.136E+16 -0.347 4.973E+04
REV/ 1.030E+14 0.000 1.104E+04 /
DUP
!R15
H2O2+O2<=>HO2+HO2 2.141E+13 -0.347 3.728E+04
REV/ 1.940E+11 0.000 -1.409E+03 /
DUP
!R16
H2O2(+M)<=>OH+OH(+M) 2.951E+14 0.000 4.843E+04
LOW / 1.2020E+17 0.0000E+00 4.5500E+04 / 
TROE / 5.0000E-01 1.0000E-30 1.0000E+30 1.0000E+10 / !Troe Fall-off reaction
H2/2.5/ H2O/12/ CO/1.9/ CO2/3.8/ CH4/2/ C2H6/3/ 
!R17
H2O2+H<=>H2O+OH 2.410E+13 0.000 3.970E+03
REV/ 1.265E+08 1.310 7.141E+04 /
!R18
H2O2+H<=>H2+HO2 2.150E+10 1.000 6.000E+03
REV/ 3.716E+07 1.695 2.200E+04 /
!R19
H2O2+O<=>OH+HO2 9.550E+06 2.000 3.970E+03
REV/ 8.568E+03 2.676 1.856E+04 /
!R20
H2O2+OH<=>H2O+HO2 2.000E+12 0.000 4.272E+02
REV/ 3.665E+10 0.589 3.132E+04 /
DUP
!R21
H2O2+OH<=>H2O+HO2 1.700E+18 0.000 2.941E+04
REV/ 3.115E+16 0.589 6.030E+04 /
DUP
!R22
CO+O(+M)<=>CO2(+M) 1.800E+10 0.000 2.384E+03
LOW / 1.3500E+24 -2.7880E+00 4.1910E+03 / !Lindemann Fall-off reaction
H2/2/ O2/6/ H2O/6/ CO/1.5/ CO2/3.5/ CH4/2/ C2H6/3/ 
!R23
CO+O2<=>CO2+O 1.050E+12 0.000 4.254E+04
REV/ 8.035E+15 -0.800 5.123E+04 /
!R24
CO+OH<=>CO2+H 2.230E+05 1.890 -1.158E+03
REV/ 5.896E+11 0.699 2.426E+04 /
!R25
CO+HO2<=>CO2+OH 3.010E+13 0.000 2.300E+04
REV/ 2.280E+16 -0.470 8.497E+04 /
!R26
HCO+M<=>H+CO+M 4.750E+11 0.660 1.487E+04
REV/ 3.582E+10 1.041 -4.573E+02 /
H2/2/ H2O/12/ CO/1.5/ CO2/2/ CH4/2/ C2H6/3/ 
!R27
HCO+O2<=>CO+HO2 7.580E+12 0.000 4.100E+02
REV/ 1.198E+12 0.309 3.395E+04 /
!R28
HCO+H<=>CO+H2 7.340E+13 0.000 0.000E+00
REV/ 2.212E+12 0.656 8.823E+04 /
!R29
HCO+O<=>CO+OH 3.020E+13 0.000 0.000E+00
REV/ 4.725E+11 0.638 8.682E+04 /
!R30
HCO+O<=>CO2+H 3.000E+13 0.000 0.000E+00
REV/ 1.241E+18 -0.553 1.122E+05 /
!R31
HCO+OH<=>CO+H2O 1.020E+14 0.000 0.000E+00
REV/ 3.259E+13 0.551 1.031E+05 /
!R32
HCO+CH3<=>CH4+CO 2.650E+13 0.000 0.000E+00
REV/ 7.286E+14 0.211 8.977E+04 /
!R33
HCO+HO2<=>CH2O+O2 2.499E+14 -0.061 1.392E+04
REV/ 8.070E+15 0.000 5.342E+04 /
!R34
HCO+HO2<=>CO2+H+OH 3.000E+13 0.000 0.000E+00
REV/ 0.000E+00 0.000 0.000E+00 /
!R35
O2CHO<=>HCO+O2 9.959E+15 -1.126 4.100E+04
REV/ 1.200E+11 0.000 -1.100E+03 /
!R36
CH2O+O2CHO<=>HCO+HO2CHO 1.990E+12 0.000 1.166E+04
REV/ 3.908E+14 -0.909 1.181E+04 /
!R37
HO2CHO<=>OCHO+OH 5.010E+14 0.000 4.015E+04
REV/ 3.856E+08 1.532 -6.372E+03 /
!R38
OCHO+M<=>H+CO2+M 5.318E+14 -0.353 1.758E+04
REV/ 7.500E+13 0.000 2.900E+04 /
!R39
CH2O+CO<=>HCO+HCO 9.186E+13 0.370 7.304E+04
REV/ 1.800E+13 0.000 0.000E+00 /
!R40
HCO+HCO<=>H2+CO+CO 3.000E+12 0.000 0.000E+00
REV/ 0.000E+00 0.000 0.000E+00 /
!R41
HCO+H(+M)<=>CH2O(+M) 1.090E+12 0.480 -2.600E+02
LOW / 1.3500E+24 -2.5700E+00 1.4250E+03 / 
TROE / 7.8240E-01 2.7100E+02 2.7550E+03 6.5700E+03 / !Troe Fall-off reaction
H2/2/ H2O/6/ CO/1.5/ CO2/2/ CH4/2/ C2H6/3/ 
!R42
CO+H2(+M)<=>CH2O(+M) 4.300E+07 1.500 7.960E+04
LOW / 5.0700E+27 -3.4200E+00 8.4348E+04 / 
TROE / 9.3200E-01 1.9700E+02 1.5400E+03 1.0300E+04 / !Troe Fall-off reaction
H2/2/ H2O/6/ CO/1.5/ CO2/2/ CH4/2/ C2H6/3/ 
!R43
CH2O+OH<=>HCO+H2O 7.820E+07 1.630 -1.055E+03
REV/ 4.896E+06 1.811 2.903E+04 /
!R44
CH2O+H<=>HCO+H2 5.740E+07 1.900 2.740E+03
REV/ 3.390E+05 2.187 1.793E+04 /
!R45
CH2O+O<=>HCO+OH 6.260E+09 1.150 2.260E+03
REV/ 1.919E+07 1.418 1.604E+04 /
!R46
CH2O+CH3<=>HCO+CH4 3.830E+01 3.360 4.312E+03
REV/ 2.063E+02 3.201 2.104E+04 /
!R47
CH2O+HO2<=>HCO+H2O2 7.100E-03 4.517 6.580E+03
REV/ 2.426E-02 4.108 5.769E+03 /
!R48
CH3O(+M)<=>CH2O+H(+M) 6.800E+13 0.000 2.617E+04
LOW / 1.8670E+25 -3.0000E+00 2.4307E+04 / 
TROE / 9.0000E-01 2.5000E+03 1.3000E+03 1.0000E+99 / !Troe Fall-off reaction
H2/2/ H2O/6/ CO/1.5/ CO2/2/ CH4/2/ C2H6/3/ 
!R49
CH3O+O2<=>CH2O+HO2 4.380E-19 9.500 -5.501E+03
REV/ 1.416E-20 9.816 2.108E+04 /
!R50
CH3O+CH3<=>CH2O+CH4 1.200E+13 0.000 0.000E+00
REV/ 6.749E+13 0.218 8.281E+04 /
!R51
CH3O+H<=>CH2O+H2 2.000E+13 0.000 0.000E+00
REV/ 1.233E+11 0.664 8.127E+04 /
!R52
CH3O+HO2<=>CH2O+H2O2 3.010E+11 0.000 0.000E+00
REV/ 1.074E+12 -0.031 6.527E+04 /
!R53
CH2O+H(+M)<=>CH2OH(+M) 5.400E+11 0.454 3.600E+03
LOW / 1.2700E+32 -4.8200E+00 6.5300E+03 / 
TROE / 7.1870E-01 1.0300E+02 1.2910E+03 4.1600E+03 / !Troe Fall-off reaction
H2/2/ H2O/6/ CO/1.5/ CO2/2/ CH4/2/ C2H6/3/ 
!R54
CH2OH+O2<=>CH2O+HO2 1.510E+15 -1.000 0.000E+00
REV/ 1.975E+14 -0.580 2.006E+04 /
DUP
!R55
CH2OH+O2<=>CH2O+HO2 2.410E+14 0.000 5.017E+03
REV/ 3.152E+13 0.420 2.508E+04 /
DUP
!R56
CH2OH+H<=>CH2O+H2 6.000E+12 0.000 0.000E+00
REV/ 1.497E+11 0.768 7.475E+04 /
!R57
CH2OH+HO2<=>CH2O+H2O2 1.200E+13 0.000 0.000E+00
REV/ 1.732E+14 0.073 5.875E+04 /
!R58
CH2OH+HCO<=>CH2O+CH2O 1.800E+14 0.000 0.000E+00
REV/ 7.602E+14 0.481 5.956E+04 /
!R59
OH+CH2OH<=>H2O+CH2O 2.400E+13 0.000 0.000E+00
REV/ 6.347E+12 0.662 8.964E+04 /
!R60
O+CH2OH<=>OH+CH2O 4.200E+13 0.000 0.000E+00
REV/ 5.438E+11 0.749 7.334E+04 /
!R61
CH3+H(+M)<=>CH4(+M) 1.270E+16 -0.600 3.830E+02
LOW / 2.4770E+33 -4.7600E+00 2.4440E+03 / 
TROE / 7.8300E-01 7.4000E+01 2.9400E+03 6.9600E+03 / !Troe Fall-off reaction
H2/2/ H2O/6/ CO/1.5/ CO2/2/ CH4/2/ C2H6/3/ 
!R62
CH4+H<=>CH3+H2 6.140E+05 2.500 9.587E+03
REV/ 6.730E+02 2.946 8.047E+03 /
!R63
CH4+OH<=>CH3+H2O 5.830E+04 2.600 2.190E+03
REV/ 6.776E+02 2.940 1.554E+04 /
!R64
CH4+O<=>CH3+OH 1.020E+09 1.500 8.600E+03
REV/ 5.804E+05 1.927 5.648E+03 /
!R65
CH4+HO2<=>CH3+H2O2 1.130E+01 3.740 2.101E+04
REV/ 7.166E+00 3.491 3.468E+03 /
!R66
CH4+CH2<=>CH3+CH3 2.460E+06 2.000 8.270E+03
REV/ 1.736E+06 1.868 1.298E+04 /
!R67
CH3+OH<=>CH2O+H2 8.000E+09 0.500 -1.755E+03
REV/ 1.066E+12 0.322 6.821E+04 /
!R68
CH3+OH<=>CH2(S)+H2O 4.508E+17 -1.340 1.417E+03
REV/ 1.654E+16 -0.855 1.039E+03 /
!R69
CH3+OH<=>CH3O+H 6.943E+07 1.343 1.120E+04
REV/ 1.500E+12 0.500 -1.100E+02 /
!R70
CH3+OH<=>CH2OH+H 3.090E+07 1.596 4.506E+03
REV/ 1.650E+11 0.650 -2.840E+02 /
!R71
CH3+OH<=>CH2+H2O 5.600E+07 1.600 5.420E+03
REV/ 9.224E+05 2.072 1.406E+04 /
!R72
CH3+HO2<=>CH3O+OH 1.000E+12 0.269 -6.875E+02
REV/ 6.190E+12 0.147 2.455E+04 /
!R73
CH3+HO2<=>CH4+O2 1.160E+05 2.230 -3.022E+03
REV/ 2.018E+07 2.132 5.321E+04 /
!R74
CH3+O<=>CH2O+H 5.540E+13 0.050 -1.360E+02
REV/ 3.830E+15 -0.147 6.841E+04 /
!R75
CH3+O2<=>CH3O+O 7.546E+12 0.000 2.832E+04
REV/ 4.718E+14 -0.451 2.880E+02 /
!R76
CH3+O2<=>CH2O+OH 2.641E+00 3.283 8.105E+03
REV/ 5.285E-01 3.477 5.992E+04 /
!R77
CH3+O2(+M)<=>CH3O2(+M) 7.812E+09 0.900 0.000E+00
LOW / 6.8500E+24 -3.0000E+00 0.0000E+00 / 
TROE / 6.0000E-01 1.0000E+03 7.0000E+01 1.7000E+03 / !Troe Fall-off reaction
!R78
CH3O2+CH2O<=>CH3O2H+HCO 1.990E+12 0.000 1.166E+04
REV/ 1.323E+14 -0.853 9.259E+03 /
!R79
CH4+CH3O2<=>CH3+CH3O2H 1.810E+11 0.000 1.848E+04
REV/ 2.233E+12 -0.694 -6.550E+02 /
!R80
CH3O2+CH3<=>CH3O+CH3O 5.080E+12 0.000 -1.411E+03
REV/ 1.967E+12 0.176 2.807E+04 /
!R81
CH3O2+HO2<=>CH3O2H+O2 2.470E+11 0.000 -1.570E+03
REV/ 5.302E+14 -0.792 3.552E+04 /
!R82
CH3O2+CH3O2<=>O2+CH3O+CH3O 1.400E+16 -1.610 1.860E+03
REV/ 0.000E+00 0.000 0.000E+00 /
!R83
CH3O2+H<=>CH3O+OH 9.600E+13 0.000 0.000E+00
REV/ 1.720E+09 1.019 4.078E+04 /
!R84
CH3O2+O<=>CH3O+O2 3.600E+13 0.000 0.000E+00
REV/ 2.229E+11 0.628 5.752E+04 /
!R85
CH3O2H<=>CH3O+OH 6.310E+14 0.000 4.230E+04
REV/ 2.514E+06 1.883 -2.875E+03 /
!R86
CH2(S)<=>CH2 1.000E+13 0.000 0.000E+00
REV/ 4.488E+12 -0.013 9.020E+03 /
!R87
CH2(S)+CH4<=>CH3+CH3 1.600E+13 0.000 -5.700E+02
REV/ 5.067E+12 -0.145 1.316E+04 /
!R88
CH2(S)+O2<=>CO+OH+H 7.000E+13 0.000 0.000E+00
REV/ 0.000E+00 0.000 0.000E+00 /
!R89
CH2(S)+H2<=>CH3+H 7.000E+13 0.000 0.000E+00
REV/ 2.022E+16 -0.591 1.527E+04 /
!R90
CH2(S)+H<=>CH2+H 3.000E+13 0.000 0.000E+00
REV/ 1.346E+13 -0.013 9.020E+03 /
!R91
CH2(S)+O<=>CO+H+H 3.000E+13 0.000 0.000E+00
REV/ 0.000E+00 0.000 0.000E+00 /
!R92
CH2(S)+OH<=>CH2O+H 3.000E+13 0.000 0.000E+00
REV/ 1.154E+18 -0.770 8.523E+04 /
!R93
CH2(S)+CO2<=>CH2O+CO 3.000E+12 0.000 0.000E+00
REV/ 4.366E+10 0.421 5.981E+04 /
!R94
CH2+H(+M)<=>CH3(+M) 2.500E+16 -0.800 0.000E+00
LOW / 3.2000E+27 -3.1400E+00 1.2300E+03 / 
TROE / 6.8000E-01 7.8000E+01 1.9950E+03 5.5900E+03 / !Troe Fall-off reaction
H2/2/ H2O/6/ CO/1.5/ CO2/2/ CH4/2/ C2H6/3/ 
!R95
CH2+O2<=>CH2O+O 2.400E+12 0.000 1.500E+03
REV/ 5.955E+14 -0.365 6.098E+04 /
!R96
CH2+O2<=>CO2+H+H 5.800E+12 0.000 1.500E+03
REV/ 0.000E+00 0.000 0.000E+00 /
!R97
CH2+O2<=>CO+OH+H 5.000E+12 0.000 1.500E+03
REV/ 0.000E+00 0.000 0.000E+00 /
!R98
CH2+O<=>CO+H+H 5.000E+13 0.000 0.000E+00
REV/ 0.000E+00 0.000 0.000E+00 /
!R99
CH3+CH3(+M)<=>C2H6(+M) 9.214E+16 -1.170 6.358E+02
LOW / 1.1350E+36 -5.2460E+00 1.7050E+03 / 
TROE / 4.0500E-01 1.1200E+03 6.9600E+01 1.0000E+10 / !Troe Fall-off reaction
H2/2/ H2O/6/ CO/1.5/ CO2/2/ CH4/2/ C2H6/3/ 
!R100
C2H5+H(+M)<=>C2H6(+M) 5.210E+17 -0.990 1.580E+03
LOW / 1.9900E+41 -7.0800E+00 6.6850E+03 / 
TROE / 8.4200E-01 1.2500E+02 2.2190E+03 6.8820E+03 / !Troe Fall-off reaction
H2/2/ H2O/6/ CO/1.5/ CO2/2/ CH4/2/ C2H6/3/ 
!R101
C2H6+H<=>C2H5+H2 1.150E+08 1.900 7.530E+03
REV/ 1.062E+04 2.582 9.760E+03 /
!R102
C2H6+O<=>C2H5+OH 3.550E+06 2.400 5.830E+03
REV/ 1.702E+02 3.063 6.648E+03 /
!R103
C2H6+OH<=>C2H5+H2O 1.480E+07 1.900 9.500E+02
REV/ 1.450E+04 2.476 1.807E+04 /
!R104
C2H6+O2<=>C2H5+HO2 6.030E+13 0.000 5.187E+04
REV/ 2.921E+10 0.334 -5.930E+02 /
!R105
C2H6+CH3<=>C2H5+CH4 1.510E-07 6.000 6.047E+03
REV/ 1.273E-08 6.236 9.817E+03 /
!R106
C2H6+HO2<=>C2H5+H2O2 3.460E+01 3.610 1.692E+04
REV/ 1.849E+00 3.597 3.151E+03 /
!R107
C2H6+CH3O2<=>C2H5+CH3O2H 1.940E+01 3.640 1.710E+04
REV/ 2.017E+01 3.182 1.734E+03 /
!R108
CH2(S)+C2H6<=>CH3+C2H5 1.200E+14 0.000 0.000E+00
REV/ 3.203E+12 0.091 1.750E+04 /
!R109
C2H4+H(+M)<=>C2H5(+M) 1.081E+12 0.454 1.822E+03
LOW / 1.2000E+42 -7.6200E+00 6.9700E+03 / 
TROE / 9.7500E-01 2.1000E+02 9.8400E+02 4.3740E+03 / !Troe Fall-off reaction
H2/2/ H2O/6/ CO/1.5/ CO2/2/ CH4/2/ C2H6/3/ 
!R110
H2+CH3O2<=>H+CH3O2H 1.500E+14 0.000 2.603E+04
REV/ 1.688E+18 -1.140 8.434E+03 /
!R111
C2H5+C2H3<=>C2H4+C2H4 6.859E+11 0.110 -4.300E+03
REV/ 4.820E+14 0.000 7.153E+04 /
!R112
CH3+C2H5<=>CH4+C2H4 1.180E+04 2.450 -2.921E+03
REV/ 2.390E+06 2.400 6.669E+04 /
!R113
C2H5+H<=>CH3+CH3 9.690E+13 0.000 2.200E+02
REV/ 2.029E+09 1.028 1.051E+04 /
!R114
C2H5+H<=>C2H4+H2 2.000E+12 0.000 0.000E+00
REV/ 4.440E+11 0.396 6.807E+04 /
!R115
C2H5+O<=>CH3CHO+H 1.100E+14 0.000 0.000E+00
REV/ 1.033E+17 -0.500 7.742E+04 /
!R116
C2H5+HO2<=>C2H5O+OH 1.100E+13 0.000 0.000E+00
REV/ 9.680E+15 -0.723 2.765E+04 /
!R117
CH3O2+C2H5<=>CH3O+C2H5O 8.000E+12 0.000 -1.000E+03
REV/ 4.404E+14 -0.425 3.089E+04 /
!R118
C2H5O+O2<=>CH3CHO+HO2 4.280E+10 0.000 1.097E+03
REV/ 1.322E+08 0.615 3.413E+04 /
!R119
C2H5O<=>CH3+CH2O 1.321E+20 -2.018 2.075E+04
REV/ 3.000E+11 0.000 6.336E+03 /
!R120
C2H5O<=>CH3CHO+H 5.428E+15 -0.687 2.223E+04
REV/ 8.000E+12 0.000 6.400E+03 /
!R121
C2H5O2<=>C2H5+O2 1.312E+62 -14.784 4.918E+04
REV/ 2.876E+56 -13.820 1.462E+04 /
!R122
C2H5+O2<=>C2H4+HO2 7.561E+14 -1.010 4.749E+03
REV/ 8.802E+14 -0.962 1.813E+04 /
DUP
!R123
C2H5+O2<=>C2H4+HO2 4.000E-01 3.880 1.362E+04
REV/ 4.656E-01 3.928 2.700E+04 /
DUP
!R124
C2H5+O2<=>CH3CHO+OH 8.265E+02 2.410 5.285E+03
REV/ 2.247E+03 2.301 6.597E+04 /
!R125
C2H5O2<=>CH3CHO+OH 2.520E+41 -10.200 4.371E+04
REV/ 1.502E+36 -9.345 6.984E+04 /
!R126
C2H5O2<=>C2H4+HO2 1.815E+38 -8.450 3.789E+04
REV/ 4.632E+32 -7.438 1.670E+04 /
!R127
C2H3O1-2<=>CH3CO 8.500E+14 0.000 1.400E+04
REV/ 1.002E+14 0.041 4.871E+04 /
!R128
CH3CHO<=>CH3+HCO 7.687E+20 -1.342 8.695E+04
REV/ 1.750E+13 0.000 0.000E+00 /
!R129
CH3CHO+H<=>CH3CO+H2 2.370E+13 0.000 3.642E+03
REV/ 1.639E+10 0.633 1.760E+04 /
!R130
CH3CHO+O<=>CH3CO+OH 5.940E+12 0.000 1.868E+03
REV/ 2.133E+09 0.614 1.441E+04 /
!R131
CH3CHO+OH<=>CH3CO+H2O 3.370E+12 0.000 -6.190E+02
REV/ 2.472E+10 0.527 2.823E+04 /
!R132
CH3CHO+O2<=>CH3CO+HO2 3.010E+13 0.000 3.915E+04
REV/ 1.092E+11 0.285 -1.588E+03 /
!R133
CH3CHO+CH3<=>CH3CO+CH4 7.080E-04 4.580 1.966E+03
REV/ 4.468E-04 4.767 1.746E+04 /
!R134
CH3CHO+HO2<=>CH3CO+H2O2 3.010E+12 0.000 1.192E+04
REV/ 1.205E+12 -0.062 9.877E+03 /
!R135
CH3O2+CH3CHO<=>CH3O2H+CH3CO 3.010E+12 0.000 1.192E+04
REV/ 2.344E+13 -0.507 8.282E+03 /
!R136
CH3CO(+M)<=>CH3+CO(+M) 3.000E+12 0.000 1.672E+04
LOW / 1.2000E+15 0.0000E+00 1.2518E+04 / !Lindemann Fall-off reaction
!R137
CH3CO+H<=>CH2CO+H2 2.000E+13 0.000 0.000E+00
REV/ 1.037E+13 0.201 6.056E+04 /
!R138
CH3CO+O<=>CH2CO+OH 2.000E+13 0.000 0.000E+00
REV/ 5.381E+12 0.182 5.914E+04 /
!R139
CH3CO+CH3<=>CH2CO+CH4 5.000E+13 0.000 0.000E+00
REV/ 2.364E+16 -0.245 6.210E+04 /
!R140
CH2+CO(+M)<=>CH2CO(+M) 8.100E+11 0.000 0.000E+00
LOW / 2.6900E+33 -5.1100E+00 7.0950E+03 / 
TROE / 5.9070E-01 2.7500E+02 1.2260E+03 5.1850E+03 / !Troe Fall-off reaction
H2/2/ H2O/6/ CO/1.5/ CO2/2/ CH4/2/ C2H6/3/ 
!R141
CH2CO+H<=>CH3+CO 1.100E+13 0.000 3.400E+03
REV/ 2.400E+12 0.000 4.020E+04 /
!R142
CH2CO+H<=>HCCO+H2 2.000E+14 0.000 8.000E+03
REV/ 1.434E+11 0.470 4.520E+03 /
!R143
CH2CO+O<=>CH2+CO2 1.750E+12 0.000 1.350E+03
REV/ 2.854E+09 0.809 4.944E+04 /
!R144
CH2CO+O<=>HCCO+OH 1.000E+13 0.000 8.000E+03
REV/ 3.723E+09 0.452 3.108E+03 /
!R145
CH2CO+OH<=>HCCO+H2O 1.000E+13 0.000 2.000E+03
REV/ 7.604E+10 0.365 1.341E+04 /
!R146
CH2CO+OH<=>CH2OH+CO 2.000E+12 0.000 -1.010E+03
REV/ 8.170E+09 0.494 2.453E+04 /
!R147
CH2(S)+CH2CO<=>C2H4+CO 1.600E+14 0.000 0.000E+00
REV/ 3.750E+14 0.217 1.034E+05 /
!R148
HCCO+OH<=>H2+CO+CO 1.000E+14 0.000 0.000E+00
REV/ 0.000E+00 0.000 0.000E+00 /
!R149
H+HCCO<=>CH2(S)+CO 1.100E+13 0.000 0.000E+00
REV/ 4.061E+07 1.561 1.854E+04 /
!R150
HCCO+O<=>H+CO+CO 8.000E+13 0.000 0.000E+00
REV/ 0.000E+00 0.000 0.000E+00 /
!R151
HCCO+O2<=>OH+CO+CO 4.200E+10 0.000 8.500E+02
REV/ 0.000E+00 0.000 0.000E+00 /
!R152
C2H3+H(+M)<=>C2H4(+M) 1.360E+14 0.173 6.600E+02
LOW / 1.4000E+30 -3.8600E+00 3.3200E+03 / 
TROE / 7.8200E-01 2.0750E+02 2.6630E+03 6.0950E+03 / !Troe Fall-off reaction
H2/2/ H2O/6/ CO/1.5/ CO2/2/ CH4/2/ C2H6/3/ 
!R153
C2H4(+M)<=>C2H2+H2(+M) 8.000E+12 0.440 8.877E+04
LOW / 1.5800E+51 -9.3000E+00 9.7800E+04 / 
TROE / 7.3500E-01 1.8000E+02 1.0350E+03 5.4170E+03 / !Troe Fall-off reaction
H2/2/ H2O/6/ CO/1.5/ CO2/2/ CH4/2/ C2H6/3/ 
!R154
C2H4+H<=>C2H3+H2 5.070E+07 1.930 1.295E+04
REV/ 1.602E+04 2.436 5.190E+03 /
!R155
C2H4+O<=>CH3+HCO 8.564E+06 1.880 1.830E+02
REV/ 3.297E+02 2.602 2.614E+04 /
!R156
C2H4+OH<=>C2H3+H2O 1.800E+06 2.000 2.500E+03
REV/ 6.029E+03 2.400 9.632E+03 /
!R157
C2H4+CH3<=>C2H3+CH4 6.620E+00 3.700 9.500E+03
REV/ 1.908E+00 3.760 3.280E+03 /
!R158
C2H4+O2<=>C2H3+HO2 4.000E+13 0.000 5.820E+04
REV/ 6.626E+10 0.158 -4.249E+03 /
!R159
C2H4+CH3O2<=>C2H3+CH3O2H 2.230E+12 0.000 1.719E+04
REV/ 7.929E+12 -0.634 -8.167E+03 /
!R160
CH2(S)+CH3<=>C2H4+H 2.000E+13 0.000 0.000E+00
REV/ 6.128E+19 -1.223 7.305E+04 /
!R161
C2H2+H(+M)<=>C2H3(+M) 5.600E+12 0.000 2.400E+03
LOW / 3.8000E+40 -7.2700E+00 7.2200E+03 / 
TROE / 7.5100E-01 9.8500E+01 1.3020E+03 4.1670E+03 / !Troe Fall-off reaction
H2/2/ H2O/6/ CO/1.5/ CO2/2/ CH4/2/ C2H6/3/ 
!R162
C2H3+O2<=>C2H2+HO2 2.120E-06 6.000 9.484E+03
REV/ 1.087E-05 5.905 2.403E+04 /
!R163
C2H3+O2<=>CH2O+HCO 8.500E+28 -5.312 6.500E+03
REV/ 3.994E+27 -4.883 9.345E+04 /
!R164
CH3+C2H3<=>CH4+C2H2 3.920E+11 0.000 0.000E+00
REV/ 3.497E+14 -0.193 7.078E+04 /
!R165
C2H3+H<=>C2H2+H2 9.640E+13 0.000 0.000E+00
REV/ 9.427E+13 0.253 6.924E+04 /
!R166
C2H3+OH<=>C2H2+H2O 5.000E+12 0.000 0.000E+00
REV/ 5.184E+13 0.147 8.413E+04 /
!R167
C2H2+O2<=>HCCO+OH 2.000E+08 1.500 3.010E+04
REV/ 2.039E+06 1.541 3.227E+04 /
!R168
C2H2+O<=>CH2+CO 6.940E+06 2.000 1.900E+03
REV/ 4.050E+01 3.198 4.836E+04 /
!R169
C2H2+O<=>HCCO+H 1.350E+07 2.000 1.900E+03
REV/ 4.755E+07 1.650 2.080E+04 /
!R170
C2H2+OH<=>CH2CO+H 3.236E+13 0.000 1.200E+04
REV/ 3.061E+17 -0.802 3.579E+04 /
!R171
C2H2+OH<=>CH3+CO 4.830E-04 4.000 -2.000E+03
REV/ 3.495E-06 4.638 5.212E+04 /
!R172
CH3COCH3(+M)<=>CH3CO+CH3(+M) 7.108E+21 -1.570 8.468E+04
LOW / 7.0130E+89 -2.0380E+01 1.0715E+05 / 
TROE / 8.6300E-01 1.0000E+10 4.1640E+02 3.2900E+09 / !Troe Fall-off reaction
!R173
CH3COCH3+OH<=>CH3COCH2+H2O 1.250E+05 2.483 4.450E+02
REV/ 8.620E+04 2.322 2.471E+04 /
!R174
CH3COCH3+H<=>CH3COCH2+H2 9.800E+05 2.430 5.160E+03
REV/ 6.374E+04 2.375 1.453E+04 /
!R175
CH3COCH3+O<=>CH3COCH2+OH 5.130E+11 0.211 4.890E+03
REV/ 1.732E+10 0.137 1.285E+04 /
!R176
CH3COCH3+CH3<=>CH3COCH2+CH4 3.960E+11 0.000 9.784E+03
REV/ 2.350E+13 -0.501 2.069E+04 /
!R177
CH3COCH3+O2<=>CH3COCH2+HO2 6.030E+13 0.000 4.850E+04
REV/ 2.057E+13 -0.403 3.181E+03 /
!R178
CH3COCH3+HO2<=>CH3COCH2+H2O2 1.700E+13 0.000 2.046E+04
REV/ 6.397E+14 -0.750 1.383E+04 /
!R179
CH3COCH3+CH3O2<=>CH3COCH2+CH3O2H 1.700E+13 0.000 2.046E+04
REV/ 1.245E+16 -1.195 1.223E+04 /
!R180
CH3COCH2<=>CH2CO+CH3 1.000E+14 0.000 3.100E+04
REV/ 1.000E+11 0.000 6.000E+03 /
!R181
C2H3CHO<=>C2H3+HCO 2.003E+24 -2.135 1.034E+05
REV/ 1.810E+13 0.000 0.000E+00 /
!R182
C2H3CHO+H<=>C2H3CO+H2 1.340E+13 0.000 3.300E+03
REV/ 3.311E+10 0.613 2.268E+04 /
!R183
C2H3CHO+O<=>C2H3CO+OH 5.940E+12 0.000 1.868E+03
REV/ 7.618E+09 0.594 1.984E+04 /
!R184
C2H3CHO+OH<=>C2H3CO+H2O 9.240E+06 1.500 -9.620E+02
REV/ 2.420E+05 2.007 3.331E+04 /
!R185
C2H3CHO+O2<=>C2H3CO+HO2 1.005E+13 0.000 4.070E+04
REV/ 1.302E+11 0.265 5.391E+03 /
!R186
C2H3CHO+HO2<=>C2H3CO+H2O2 3.010E+12 0.000 1.192E+04
REV/ 4.303E+12 -0.082 1.530E+04 /
!R187
C2H3CHO+CH3<=>C2H3CO+CH4 2.608E+06 1.780 5.911E+03
REV/ 5.878E+06 1.947 2.683E+04 /
!R188
C2H3CHO+C2H3<=>C2H3CO+C2H4 1.740E+12 0.000 8.440E+03
REV/ 1.000E+13 0.000 2.800E+04 /
!R189
C2H3CHO+CH3O2<=>C2H3CO+CH3O2H 3.010E+12 0.000 1.192E+04
REV/ 8.371E+13 -0.527 1.371E+04 /
!R190
C2H3CO<=>C2H3+CO 1.370E+21 -2.179 3.941E+04
REV/ 1.510E+11 0.000 4.810E+03 /
!R191
C2H5CO<=>C2H5+CO 2.460E+23 -3.208 1.755E+04
REV/ 1.510E+11 0.000 4.810E+03 /
!R192
IC3H7<=>H+C3H6 6.919E+13 -0.025 3.769E+04
REV/ 2.640E+13 0.000 2.160E+03 /
!R193
IC3H7+H<=>C2H5+CH3 2.000E+13 0.000 0.000E+00
REV/ 4.344E+07 1.176 8.620E+03 /
!R194
IC3H7+O2<=>C3H6+HO2 4.500E-19 0.000 5.020E+03
REV/ 2.000E-19 0.000 1.750E+04 /
!R195
IC3H7+OH<=>C3H6+H2O 2.410E+13 0.000 0.000E+00
REV/ 2.985E+12 0.570 8.382E+04 /
!R196
IC3H7+O<=>CH3COCH3+H 4.818E+13 0.000 0.000E+00
REV/ 1.293E+16 -0.190 7.938E+04 /
!R197
IC3H7+O<=>CH3CHO+CH3 4.818E+13 0.000 0.000E+00
REV/ 1.279E+11 0.800 8.648E+04 /
!R198
C3H6<=>C2H3+CH3 2.730E+62 -13.280 1.232E+05
REV/ 6.822E+53 -11.779 2.055E+04 /
!R199
C3H6<=>C3H5-A+H 2.010E+61 -13.260 1.185E+05
REV/ 2.041E+61 -13.520 3.061E+04 /
!R200
C3H6<=>C3H5-S+H 7.710E+69 -16.090 1.400E+05
REV/ 2.551E+67 -15.867 2.869E+04 /
!R201
C3H6<=>C3H5-T+H 5.620E+71 -16.580 1.393E+05
REV/ 4.260E+68 -16.164 3.008E+04 /
!R202
C3H6+O<=>C2H5+HCO 1.580E+07 1.760 -1.216E+03
REV/ 9.188E+01 2.725 2.311E+04 /
!R203
C3H6+O<=>CH2CO+CH3+H 2.500E+07 1.760 7.600E+01
REV/ 0.000E+00 0.000 0.000E+00 /
!R204
C3H6+O<=>CH3CHCO+H+H 2.500E+07 1.760 7.600E+01
REV/ 0.000E+00 0.000 0.000E+00 /
!R205
C3H6+O<=>C3H5-A+OH 5.240E+11 0.700 5.884E+03
REV/ 1.104E+11 0.697 2.015E+04 /
!R206
C3H6+O<=>C3H5-S+OH 1.200E+11 0.700 8.959E+03
REV/ 8.239E+07 1.180 -2.070E+02 /
!R207
C3H6+O<=>C3H5-T+OH 6.030E+10 0.700 7.632E+03
REV/ 9.483E+06 1.373 5.760E+02 /
!R208
C3H6+OH<=>C3H5-A+H2O 3.120E+06 2.000 -2.980E+02
REV/ 1.343E+07 1.909 3.027E+04 /
!R209
C3H6+OH<=>C3H5-S+H2O 2.110E+06 2.000 2.778E+03
REV/ 2.959E+04 2.393 9.916E+03 /
!R210
C3H6+OH<=>C3H5-T+H2O 1.110E+06 2.000 1.451E+03
REV/ 3.565E+03 2.586 1.070E+04 /
!R211
C3H6+HO2<=>C3H5-A+H2O2 2.700E+04 2.500 1.234E+04
REV/ 6.341E+06 1.820 1.201E+04 /
!R212
C3H6+HO2<=>C3H5-S+H2O2 1.800E+04 2.500 2.762E+04
REV/ 1.377E+04 2.304 3.864E+03 /
!R213
C3H6+HO2<=>C3H5-T+H2O2 9.000E+03 2.500 2.359E+04
REV/ 1.577E+03 2.497 1.941E+03 /
!R214
C3H6+H<=>C3H5-A+H2 1.730E+05 2.500 2.492E+03
REV/ 7.023E+04 2.515 1.817E+04 /
!R215
C3H6+H<=>C3H5-S+H2 8.040E+05 2.500 1.228E+04
REV/ 1.063E+03 2.999 4.526E+03 /
!R216
C3H6+H<=>C3H5-T+H2 4.050E+05 2.500 9.794E+03
REV/ 1.227E+02 3.192 4.150E+03 /
!R217
C3H6+H<=>C2H4+CH3 2.300E+13 0.000 2.547E+03
REV/ 7.272E+07 1.271 1.120E+04 /
!R218
C3H6+O2<=>C3H5-A+HO2 4.000E+12 0.000 3.990E+04
REV/ 8.514E+12 -0.333 8.870E+02 /
!R219
C3H6+O2<=>C3H5-S+HO2 2.000E+12 0.000 6.290E+04
REV/ 1.387E+10 0.151 4.590E+02 /
!R220
C3H6+O2<=>C3H5-T+HO2 1.400E+12 0.000 6.070E+04
REV/ 2.224E+09 0.344 3.690E+02 /
!R221
C3H6+CH3<=>C3H5-A+CH4 2.210E+00 3.500 5.675E+03
REV/ 8.184E+02 3.070 2.289E+04 /
!R222
C3H6+CH3<=>C3H5-S+CH4 1.348E+00 3.500 1.285E+04
REV/ 1.626E+00 3.553 6.635E+03 /
!R223
C3H6+CH3<=>C3H5-T+CH4 8.400E-01 3.500 1.166E+04
REV/ 2.322E-01 3.746 7.552E+03 /
!R224
C3H6+C2H5<=>C3H5-A+C2H6 1.000E+11 0.000 9.800E+03
REV/ 5.369E+05 1.330 1.644E+04 /
!R225
C3H6+CH3O2<=>C3H5-A+CH3O2H 3.240E+11 0.000 1.490E+04
REV/ 2.000E+10 0.000 1.500E+04 /
!R226
C3H5-A<=>C2H2+CH3 2.397E+48 -9.900 8.208E+04
REV/ 2.610E+46 -9.820 3.695E+04 /
!R227
C3H5-A<=>C3H4-A+H 4.194E+13 0.216 6.193E+04
REV/ 2.400E+11 0.690 3.007E+03 /
!R228
C3H5-A+HO2<=>C3H5O+OH 7.000E+12 0.000 -1.000E+03
REV/ 1.605E+12 0.060 1.166E+04 /
!R229
C3H5-A+CH3O2<=>C3H5O+CH3O 7.000E+12 0.000 -1.000E+03
REV/ 1.990E+15 -0.740 1.702E+04 /
!R230
C3H5-A+H<=>C3H4-A+H2 1.232E+03 3.035 2.582E+03
REV/ 2.818E+00 3.784 4.722E+04 /
!R231
C3H5-A+CH3<=>C3H4-A+CH4 1.000E+11 0.000 0.000E+00
REV/ 4.921E+12 0.050 4.778E+04 /
!R232
C3H5-A+C2H5<=>C2H6+C3H4-A 4.000E+11 0.000 0.000E+00
REV/ 1.802E+12 0.050 4.033E+04 /
!R233
C3H5-A+C2H5<=>C2H4+C3H6 4.000E+11 0.000 0.000E+00
REV/ 6.937E+16 -1.330 5.280E+04 /
!R234
C3H5-A+C2H3<=>C2H4+C3H4-A 1.000E+12 0.000 0.000E+00
REV/ 1.624E+13 0.050 4.819E+04 /
!R235
C3H4-A+C3H6<=>C3H5-A+C3H5-A 4.749E+08 0.734 2.870E+04
REV/ 8.430E+10 0.000 -2.620E+02 /
!R236
C3H5-A+O2<=>C3H4-A+HO2 2.180E+21 -2.850 3.076E+04
REV/ 2.614E+19 -2.449 2.071E+04 /
!R237
C3H5-A+O2<=>C2H3CHO+OH 2.470E+13 -0.440 2.302E+04
REV/ 1.989E+13 -0.609 7.514E+04 /
!R238
C3H5-A+O2<=>C2H2+CH2O+OH 9.720E+29 -5.710 2.145E+04
REV/ 0.000E+00 0.000 0.000E+00 /
!R239
C3H5-S<=>C2H2+CH3 9.598E+39 -8.170 4.203E+04
REV/ 1.610E+40 -8.580 2.033E+04 /
!R240
C3H5-S<=>C3H4-P+H 4.187E+15 -0.790 3.748E+04
REV/ 5.800E+12 0.000 3.100E+03 /
!R241
C3H5-S+O2<=>CH3CHO+HCO 4.335E+12 0.000 0.000E+00
REV/ 1.611E+17 -1.270 9.653E+04 /
!R242
C3H5-S+H<=>C3H4-A+H2 3.333E+12 0.000 0.000E+00
REV/ 7.977E+12 0.110 6.886E+04 /
!R243
C3H5-S+CH3<=>C3H4-A+CH4 1.000E+11 0.000 0.000E+00
REV/ 6.253E+12 0.110 6.934E+04 /
!R244
C3H5-T<=>C2H2+CH3 2.163E+40 -8.310 4.511E+04
REV/ 1.610E+40 -8.580 2.033E+04 /
!R245
C3H5-T<=>C3H4-A+H 3.508E+14 -0.440 4.089E+04
REV/ 8.500E+12 0.000 2.000E+03 /
!R246
C3H5-T<=>C3H4-P+H 1.075E+15 -0.600 3.849E+04
REV/ 6.500E+12 0.000 2.000E+03 /
!R247
C3H5-T+O2<=>C3H4-A+HO2 1.890E+30 -5.590 1.554E+04
REV/ 3.037E+31 -5.865 2.681E+04 /
!R248
C3H5-T+O2<=>CH3COCH2+O 3.810E+17 -1.360 5.580E+03
REV/ 2.000E+11 0.000 1.750E+04 /
!R249
C3H5-T+O2<=>CH2O+CH3CO 3.710E+25 -3.960 7.043E+03
REV/ 1.872E+27 -4.430 1.012E+05 /
!R250
C3H5-T+H<=>C3H4-P+H2 3.333E+12 0.000 0.000E+00
REV/ 2.138E+16 -0.880 7.105E+04 /
!R251
C3H5-T+CH3<=>C3H4-P+CH4 1.000E+11 0.000 0.000E+00
REV/ 1.676E+16 -0.880 7.153E+04 /
!R252
C3H4-A+M<=>C3H3+H+M 1.143E+17 0.000 7.000E+04
REV/ 1.798E+15 -0.380 1.061E+04 /
!R253
C3H4-A<=>C3H4-P 1.202E+15 0.000 9.240E+04
REV/ 3.222E+18 -0.990 9.659E+04 /
!R254
C3H4-A+O2<=>C3H3+HO2 4.000E+13 0.000 3.916E+04
REV/ 3.170E+11 -0.086 3.110E+02 /
!R255
C3H4-A+HO2<=>CH2CO+CH2+OH 4.000E+12 0.000 1.900E+04
REV/ 1.000E+00 0.000 0.000E+00 /
!R256
C3H4-A+OH<=>CH2CO+CH3 3.120E+12 0.000 -3.970E+02
REV/ 1.806E+17 -1.380 3.607E+04 /
!R257
C3H4-A+OH<=>C3H3+H2O 1.000E+07 2.000 1.000E+03
REV/ 1.602E+05 2.157 3.173E+04 /
!R258
C3H4-A+O<=>C2H4+CO 7.800E+12 0.000 1.600E+03
REV/ 3.269E+08 1.252 1.219E+05 /
!R259
C3H4-A+O<=>C2H2+CH2O 3.000E-03 4.610 -4.243E+03
REV/ 2.320E+02 3.230 8.119E+04 /
!R260
C3H4-A+H<=>C3H3+H2 2.000E+07 2.000 5.000E+03
REV/ 3.022E+04 2.262 2.084E+04 /
!R261
C3H4-A+CH3<=>C3H3+CH4 3.670E-02 4.010 6.830E+03
REV/ 5.060E-02 3.826 2.421E+04 /
!R262
C3H4-A+C3H5-A<=>C3H3+C3H6 2.000E+11 0.000 7.700E+03
REV/ 2.644E+19 -2.710 4.214E+04 /
!R263
C3H4-P+M<=>C3H3+H+M 1.143E+17 0.000 7.000E+04
REV/ 6.708E+11 0.610 6.420E+03 /
!R264
C3H4-P+O2<=>HCCO+OH+CH2 1.000E+07 1.500 3.010E+04
REV/ 1.000E+00 0.000 0.000E+00 /
!R265
C3H4-P+O2<=>C3H3+HO2 2.000E+13 0.000 4.160E+04
REV/ 6.371E+11 -0.208 1.021E+03 /
!R266
C3H4-P+HO2<=>C2H4+CO+OH 3.000E+12 0.000 1.900E+04
REV/ 1.000E+00 0.000 0.000E+00 /
!R267
C3H4-P+OH<=>C3H3+H2O 1.000E+07 2.000 1.000E+03
REV/ 6.441E+05 2.034 3.000E+04 /
!R268
C3H4-P+OH<=>CH2CO+CH3 5.000E-04 4.500 -1.000E+03
REV/ 1.079E-02 4.110 3.128E+04 /
!R269
C3H4-P+O<=>C2H3+HCO 3.200E+12 0.000 2.010E+03
REV/ 2.548E+12 -0.390 3.235E+04 /
!R270
C3H4-P+O<=>HCCO+CH3 9.600E+08 1.000 0.000E+00
REV/ 1.430E+04 1.793 2.699E+04 /
!R271
C3H4-P+O<=>HCCO+CH2+H 3.200E-19 0.000 2.010E+03
REV/ 1.000E-30 0.000 0.000E+00 /
!R272
C3H4-P+O<=>C3H3+OH 7.650E+08 1.500 8.600E+03
REV/ 2.177E+08 1.310 2.247E+04 /
!R273
C3H4-P+H<=>C3H3+H2 2.000E+07 2.000 5.000E+03
REV/ 1.215E+05 2.140 1.911E+04 /
!R274
C3H4-P+CH3<=>C3H3+CH4 1.500E+00 3.500 5.600E+03
REV/ 8.313E+00 3.195 2.125E+04 /
!R275
C3H4-P+C2H3<=>C3H3+C2H4 1.000E+12 0.000 7.700E+03
REV/ 9.541E+11 -0.390 5.245E+04 /
!R276
C3H4-P+C3H5-A<=>C3H3+C3H6 1.000E+12 0.000 7.700E+03
REV/ 4.931E+16 -1.730 3.795E+04 /
!R277
C3H3+OH<=>C3H2+H2O 1.000E+13 0.000 0.000E+00
REV/ 1.343E+15 0.000 1.568E+04 /