"""

++++++++++++++++++++++++++++++++++++++++++++++++++++++++++++++++++++++++++++++++++++++++++++++++++++++++++++++++++++++++++++++++++++++++++++++++++++++++++++++
\START_SPECIES_LIST
++++++++++++++++++++++++++++++++++++++++++++++++++++++++++++++++++++++++++++++++++++++++++++++++++++++++++++++++++++++++++++++++++++++++++++++++++++++++++++++
VERSION:  16_03
AUTHORS:  C3
NOTE:     SPECIES RE-ARRANGED AS THE SAME ORDER IN MECH

"""

units(length='cm', time='s', quantity='mol', act_energy='cal/mol')

ideal_gas(name='gas',
          elements="C H N O Ar He",
          species="""AR                N2                HE
                     H2                H                 O2
                     O                 H2O               OH
                     OHV               H2O2              HO2
                     CO                CO2               HOCO
                     CH4               CH3               CH2
                     CH2(S)            C                 CH
                     CHV               CH3O2H            CH3O2
                     CH2O2H            CH3OH             CH3O
                     CH2OH             CH2O              HCO
                     HCOH              HO2CHO            HOCH2O2H
                     HOCH2O2           OCH2O2H           HOCH2O
                     O2CHO             HOCHO             OCHO
                     C2H6              C2H5              C2H5O2H
                     C2H5O2            C2H4              C2H3
                     CHOCHO            C2H3OOH           C2H3OO
                     CHCHO             C2H2              C2H
                     H2CC              C2H5OH            C2H5O
                     PC2H4OH           SC2H4OH           O2C2H4OH
                     C2H4O2H           C2H4O1-2          C2H3O1-2
                     CH3CHO            CH3CO             CH2CHO
                     O2CH2CHO          HO2CH2CO          C2H3OH
                     C2H2OH            CH2CO             HCCO
                     HCCOH             CH3CO3H           CH3CO3
                     CH3CO2            CH3OCH3           CH3OCH2
                     CH3OCH2O2H        CH3OCH2O2         CH2OCH2O2H
                     O2CH2OCH2O2H      HO2CH2OCHO        OCH2OCHO
                     HOCH2OCO          CH3OCH2O          CH3OCHO
                     CH3OCO            CH2OCHO           C3H8
                     IC3H7             NC3H7             NC3H7O2H
                     NC3H7O2           IC3H7O2H          IC3H7O2
                     NC3H7O            IC3H7O            C3H6OOH1-2
                     C3H6OOH1-3        C3H6OOH2-1        C3H6OOH1-2O2
                     C3H6OOH1-3O2      C3H6OOH2-1O2      C3KET12
                     C3KET13           C3H51-2,3OOH      C3H52-1,3OOH
                     C3H5O1-2OOH-3     C3H5O1-3OOH-2     C3H6O1-2
                     C3H6O1-3          C3H6              C3H5-A
                     C3H5-S            C3H5-T            CC3H6
                     C3H5O             CH2CHOCH2         CH3CHCHO
                     AC4H7OOH          C3H6OH1-2         CH3CHCO
                     AC3H5OOH          C3H6OH2-1         HOC3H6O2
                     SC3H5OH           IC3H5OH           C3H5OH
                     CH2CCH2OH         C3H4-P            C3H4-A
                     C3H3              CC3H4             C3H2
                     H2CCC(S)          C3H2(S)           C3H2C
                     PC3H4OH-2         SC3H4OH           C3H3O
                     C3H3O2H           C2HCHO            C2H5CHO
                     C2H5CO            CH2CH2CHO         C2H3CHO
                     C2H3CO            CH3COCH3          CH3COCH2
                     CH3COCH2O2        CH3COCH2O         C3KET21
                     C4H10             PC4H9             SC4H9
                     PC4H9O            SC4H9O            PC4H9O2
                     SC4H9O2           PC4H9O2H          SC4H9O2H
                     C4H8OOH1-2        C4H8OOH1-3        C4H8OOH1-4
                     C4H8OOH2-1        C4H8OOH2-3        C4H8OOH2-4
                     C4H8O1-2          C4H8O1-3          C4H8O1-4
                     C4H8O2-3          C4H8OOH1-2O2      C4H8OOH1-3O2
                     C4H8OOH1-4O2      C4H8OOH2-1O2      C4H8OOH2-3O2
                     C4H8OOH2-4O2      C4H71-2,4OOH      C4H72-1,3OOH
                     C4H72-1,4OOH      C4H71-2,3OOH      C4H7O1-3OOH-4
                     C4H7O1-3OOH-2     C4H7O1-2OOH-4     C4H7O1-4OOH-2
                     C4H7O1-2OOH-3     C4H7O2-3OOH-1     C4H72-1OOH
                     NC4KET12          NC4KET13          NC4KET14
                     NC4KET21          NC4KET23          NC4KET24
                     C4H71-3OOH        C4H71-3,4OOH      C4H72-3,4OOH
                     HO2CH2CHO         IC4H10            IC4H9
                     TC4H9             TC4H9O            IC4H9O
                     IC4H8O            IC3H7CHO          IC3H7CO
                     IC3H6CHO          TC3H6CHO          IC3H5CHO
                     TC3H6O2CHO        IC3H5O2HCHO       TC3H6O2HCO
                     TC3H6OCHO         IC3H6CO           IC3H5CO
                     IC3H4CHO-A        SC4H7OH-I         IC4H9O2
                     TC4H9O2           IC4H8O2H-I        IC4H8O2H-T
                     TC4H8O2H-I        CC4H8O            IC4H8OOH-IO2
                     IC4H8OOH-TO2      TC4H8OOH-IO2      IC4KETII
                     IC4KETIT          TIC4H7Q2-I        IIC4H7Q2-I
                     IIC4H7Q2-T        IC4H7OOH          IC4H9O2H
                     TC4H9O2H          IC4H8             IC4H7
                     IC4H7-I1          IC4H7O2           IC4H6OOH-I
                     CCYCCOOC-T1       C2CYCOOC-I1       IC4H7O
                     CVCYCCOC          CCYC2OCO          CCYCCOOC-I2
                     CHOIC3H6O         IC3H5OOCH2        CCYCCO-T1
                     IC4H8OH-IT        IC4H8OH-TI        IC4H7OH
                     IC4H8OH           IC4H6OH           TQJC4H8OH
                     TQC4H8OI          QC4H7OHP          TQC4H7OHI
                     CCY(CCO)COH       C2CY(COC)OH       IQJC4H8OH
                     IC3H6OHCHO        IQC4H8OT          IQC4H7OHT
                     CCY(CCOC)OH       CH2COHCH2OOH      TC3H6OH
                     TQC4H7OHIO2       TQC4H7OHTO2       TQC4H7OHIQ-I
                     TQC4H7OHIQ-P      IC3H5COHQ         CH2CQCOHQ
                     IC3H5Q            COHQCYC(COC)      QCYC(CCOC)OH
                     HOCOCQ(CH3)2      IQC4H7OHTO2       IQC4H8OTQ-I
                     IQC4H7OHTQ-P      CHOC(CH3)OHCH2Q   CO(CH2OOH)2
                     CH3COCHO          IC3H5OCH2         IC4H7OOCH3
                     IC4H7OOIC4H7      C4H8-1            C4H8-2
                     C4H71-1           C4H71-2           C4H71-3
                     C4H71-4           C4H72-2           C4H71-O
                     PC4H8OH-2         SC4H8OH-1         SC4H8OH-3
                     C4H71-3OH         C4H71-4OH         C4H71-1OH
                     C4H71-2OH         C4H72-1OH         C4H72-2OH
                     SQC4H8OP          PQC4H8OS          PQC4H7OHS-3
                     NC4KET12OH        SQC4H7OHS-4       SQC4H8OS
                     NC4KET23OH        SC4H8OH-3O2       CCY(COCC)OH
                     C4H7O2-1          C4H6-1            AC3H5OCH2
                     IC4H6Q2-II        C5H10-2           CC5H10
                     C6H10D24          C5H91-3           C5H92-4
                     C5H92-5           C5H91-4           C5H91-5
                     C5H9O2-4          SC3H5OCH2-1       C8H141-5,3-4
                     C8H141-5,3        C8H142-6          C8H131-5,3-4,TA
                     C8H131-5,3,TA     C8H131-5,3,SA     C8H131-5,3,PA
                     C8H132-6,SA       C8H132-6,PA       C6H101-3,3
                     C8H131-5,3-4,TAO  C8H131-5,3,TAO    C8H131-5,3,SAO
                     C8H131-5,3,PAO    C8H132-6,SAO      C8H132-6,PAO
                     C7H111-5,3,6P     C7H111-5,1P       C4H64,2-1OH
                     C4H63,1-1OH       C4H63,1-3OH       C4H63,1-2OH
                     C4H5OH-13         SQC4H7OHP-4       CY(CCCO)COH
                     NC4KET21OH        C2H5CHOHCO        CH3COCOHCH3
                     C2H4COCH2OH       CH3COHCO          CH2COHCHO
                     SQC4H7OHP-4O2     PQC4H7OHS-3O2     SQC4H7OHS-4O2
                     C4H7O2-1,3OOH     NC4KET13OH-2      NC4KET24OH-1
                     NC4KET24OH-3      C4H6OHOOH1-4-3    C4H6OHOOH2-2-1
                     C4H6OHOOH1-3-4    C4H6OHOOH1-2-3    HOCH2CHO
                     C4H71-4OOH        C4H71-4O2         C4H61-3OOH4
                     C4H6O1-3OOH4      C4H6O2-1OOH4      HOCH2COCH2
                     HOCH2CO           HOCHCHO           PC3H4OH-3
                     PC3H4OH-1         CH3COCHOH         SC2H2OH
                     PC4H8OH-1         PC4H8OH-3         C4H7O1-4
                     PC4H8OH-4         SC4H8OH-2         CH2COHCO
                     C4H72-2O2         C4H71-1O2         C4H71-2O2
                     C3H6OH1-1         PC4H8OH-2O2       SC4H8OH-1O2
                     C4H71-3OOCH3      C4H72-1OOCH3      C4H6
                     C4H612            C4H6-2            C4H5-I
                     C4H5-N            C4H5-2            C4H4
                     C4H3-I            C4H3-N            C4H2
                     C4H6O25           C2H3CHOCH2        C4H4O
                     C4H6O23           CH2CHCHCHO        H2C4O
                     NC3H7CHO          NC3H7CO           C3H6CHO-1
                     C3H6CHO-2         C3H6CHO-3         SC3H5CHO
                     SC3H5CO           C2H5COCH3         C2H5COCH2
                     CH2CH2COCH3       CH3CHCOCH3        C2H3COCH3
                     CH3CHOOCOCH3      CH2CHOOHCOCH3     C2H5CHCO
                     C5H10-1           C5H81-3           C5H9O1-3
                     BC5H10            CC5H9-A           CC5H9-B
                     AC5H9O-C          CC5H9O-B          AC5H10
                     AC5H9-A2          AC5H9-C           AC5H9-D
                     B2E2M1OJ          B13DE2M           B13DE2MJ
                     B12DE3M           B2E3M1OJ          TC4H8CHO
                     O2C4H8CHO         O2HC4H8CO         C6H101-5
                     C6H9-A            H15DE25DM         H15DE25DM-S
                     H15DE25DM-A       H15DE25DM-AO      H15DE25DM-SO
                     H15DE2M-T         IC4H7CHO          L-C6H4
                     C-C6H4            C6H3              C6H2
                     C6H6              FULVENE           C6H5
                     C6H5OO            C6H5OOH           C6H5OH
                     C6H5O             C6H4OH            OC6H4OH
                     O-C6H4O2          P-C6H4O2          O-OC6H5OJ
                     P-OC6H5OJ         P-C6H3O2          C5H6
                     C5H5              C5H6-L            C#CCVCCJ
                     C5H7              CVCCJCVC          CVCCVCCJ
                     CVCCJCVCOH        HOCVCCVO          CVCCVCCOH
                     OC5H7O            OC4H6O            OC4H5O
                     O2CCHOOJ          HOCVCCJVO         C5H5OH
                     C5H5O             C5H4OH            C5H4O
                     C5H3O             CJVCCVCCVO        CVCCVCCJVO
                     CJVCCVO""",
          reactions='all',
          transport='Mix',
          initial_state=state(temperature=300.0, pressure=OneAtm))

#-------------------------------------------------------------------------------
# Species data
#-------------------------------------------------------------------------------

species(name='AR',
        atoms='Ar:1',
        thermo=(NASA([200.00, 1000.00],
                     [ 2.50000000E+00,  0.00000000E+00,  0.00000000E+00,
                       0.00000000E+00,  0.00000000E+00, -7.45375000E+02,
                       4.37967491E+00]),
                NASA([1000.00, 6000.00],
                     [ 2.50000000E+00,  0.00000000E+00,  0.00000000E+00,
                       0.00000000E+00,  0.00000000E+00, -7.45375000E+02,
                       4.37967491E+00])),
        transport=gas_transport(geom='atom',
                                diam=3.33,
                                well_depth=136.5),
        note='G5/97')

species(name='N2',
        atoms='N:2',
        thermo=(NASA([200.00, 1000.00],
                     [ 3.53100528E+00, -1.23660988E-04, -5.02999433E-07,
                       2.43530612E-09, -1.40881235E-12, -1.04697628E+03,
                       2.96747038E+00]),
                NASA([1000.00, 6000.00],
                     [ 2.95257637E+00,  1.39690040E-03, -4.92631603E-07,
                       7.86010195E-11, -4.60755204E-15, -9.23948688E+02,
                       5.87188762E+00])),
        transport=gas_transport(geom='linear',
                                diam=3.621,
                                well_depth=97.53,
                                polar=1.76,
                                rot_relax=4.0),
        note='G8/02')

species(name='HE',
        atoms='He:1',
        thermo=(NASA([200.00, 1000.00],
                     [ 2.50000000E+00,  0.00000000E+00,  0.00000000E+00,
                       0.00000000E+00,  0.00000000E+00, -7.45375000E+02,
                       9.28723974E-01]),
                NASA([1000.00, 6000.00],
                     [ 2.50000000E+00,  0.00000000E+00,  0.00000000E+00,
                       0.00000000E+00,  0.00000000E+00, -7.45375000E+02,
                       9.28723974E-01])),
        transport=gas_transport(geom='atom',
                                diam=2.576,
                                well_depth=10.2),
        note='G5/97')

species(name='H2',
        atoms='H:2',
        thermo=(NASA([200.00, 1000.00],
                     [ 2.34433112E+00,  7.98052075E-03, -1.94781510E-05,
                       2.01572094E-08, -7.37611761E-12, -9.17935173E+02,
                       6.83010238E-01]),
                NASA([1000.00, 6000.00],
                     [ 2.93286575E+00,  8.26608026E-04, -1.46402364E-07,
                       1.54100414E-11, -6.88804800E-16, -8.13065581E+02,
                      -1.02432865E+00])),
        transport=gas_transport(geom='linear',
                                diam=2.92,
                                well_depth=38.0,
                                polar=0.79,
                                rot_relax=280.0),
        note='TPIS78')

species(name='H',
        atoms='H:1',
        thermo=(NASA([200.00, 1000.00],
                     [ 2.50000000E+00,  0.00000000E+00,  0.00000000E+00,
                       0.00000000E+00,  0.00000000E+00,  2.54736600E+04,
                      -4.46682850E-01]),
                NASA([1000.00, 6000.00],
                     [ 2.50000000E+00,  0.00000000E+00,  0.00000000E+00,
                       0.00000000E+00,  0.00000000E+00,  2.54736600E+04,
                      -4.46682850E-01])),
        transport=gas_transport(geom='atom',
                                diam=2.05,
                                well_depth=145.0),
        note='L6/94')

species(name='O2',
        atoms='O:2',
        thermo=(NASA([200.00, 1000.00],
                     [ 3.78245636E+00, -2.99673416E-03,  9.84730201E-06,
                      -9.68129509E-09,  3.24372837E-12, -1.06394356E+03,
                       3.65767573E+00]),
                NASA([1000.00, 6000.00],
                     [ 3.66096065E+00,  6.56365811E-04, -1.41149627E-07,
                       2.05797935E-11, -1.29913436E-15, -1.21597718E+03,
                       3.41536279E+00])),
        transport=gas_transport(geom='linear',
                                diam=3.458,
                                well_depth=107.4,
                                polar=1.6,
                                rot_relax=3.8),
        note='RUS89')

species(name='O',
        atoms='O:1',
        thermo=(NASA([200.00, 1000.00],
                     [ 3.16826710E+00, -3.27931884E-03,  6.64306396E-06,
                      -6.12806624E-09,  2.11265971E-12,  2.91222592E+04,
                       2.05193346E+00]),
                NASA([1000.00, 6000.00],
                     [ 2.54363697E+00, -2.73162486E-05, -4.19029520E-09,
                       4.95481845E-12, -4.79553694E-16,  2.92260120E+04,
                       4.92229457E+00])),
        transport=gas_transport(geom='atom',
                                diam=2.75,
                                well_depth=80.0),
        note='L1/90')

species(name='H2O',
        atoms='H:2 O:1',
        thermo=(NASA([200.00, 1000.00],
                     [ 4.19863520E+00, -2.03640170E-03,  6.52034160E-06,
                      -5.48792690E-09,  1.77196800E-12, -3.02937260E+04,
                      -8.49009010E-01]),
                NASA([1000.00, 6000.00],
                     [ 2.67703890E+00,  2.97318160E-03, -7.73768890E-07,
                       9.44335140E-11, -4.26899910E-15, -2.98858940E+04,
                       6.88255000E+00])),
        transport=gas_transport(geom='nonlinear',
                                diam=2.605,
                                well_depth=572.4,
                                dipole=1.844,
                                rot_relax=4.0),
        note='L5/89')

species(name='OH',
        atoms='O:1 H:1',
        thermo=(NASA([200.00, 1000.00],
                     [ 3.99198424E+00, -2.40106655E-03,  4.61664033E-06,
                      -3.87916306E-09,  1.36319502E-12,  3.36889836E+03,
                      -1.03998477E-01]),
                NASA([1000.00, 6000.00],
                     [ 2.83853033E+00,  1.10741289E-03, -2.94000209E-07,
                       4.20698729E-11, -2.42289890E-15,  3.69780808E+03,
                       5.84494652E+00])),
        transport=gas_transport(geom='linear',
                                diam=2.75,
                                well_depth=80.0),
        note='IU3/03')

species(name='OHV',
        atoms='O:1 H:1',
        thermo=(NASA([300.00, 1000.00],
                     [ 3.63726600E+00,  1.85091000E-04, -1.67616460E-06,
                       2.38720200E-09, -8.43144200E-13,  5.00213000E+04,
                       1.35886050E+00]),
                NASA([1000.00, 5000.00],
                     [ 2.88273000E+00,  1.01397430E-03, -2.27687700E-07,
                       2.17468300E-11, -5.12630500E-16,  5.02650000E+04,
                       5.59571200E+00])),
        transport=gas_transport(geom='linear',
                                diam=2.75,
                                well_depth=80.0),
        note='121286')

species(name='H2O2',
        atoms='H:2 O:2',
        thermo=(NASA([200.00, 1000.00],
                     [ 4.31515149E+00, -8.47390622E-04,  1.76404323E-05,
                      -2.26762944E-08,  9.08950158E-12, -1.77067437E+04,
                       3.27373319E+00]),
                NASA([1000.00, 6000.00],
                     [ 4.57977305E+00,  4.05326003E-03, -1.29844730E-06,
                       1.98211400E-10, -1.13968792E-14, -1.80071775E+04,
                       6.64970694E-01])),
        transport=gas_transport(geom='nonlinear',
                                diam=3.458,
                                well_depth=107.4,
                                rot_relax=3.8),
        note='T8/03')

species(name='HO2',
        atoms='H:1 O:2',
        thermo=(NASA([200.00, 1000.00],
                     [ 4.30179807E+00, -4.74912097E-03,  2.11582905E-05,
                      -2.42763914E-08,  9.29225225E-12,  2.64018485E+02,
                       3.71666220E+00]),
                NASA([1000.00, 5000.00],
                     [ 4.17228741E+00,  1.88117627E-03, -3.46277286E-07,
                       1.94657549E-11,  1.76256905E-16,  3.10206839E+01,
                       2.95767672E+00])),
        transport=gas_transport(geom='nonlinear',
                                diam=3.458,
                                well_depth=107.4,
                                rot_relax=1.0),
        note='T1/09')

species(name='CO',
        atoms='C:1 O:1',
        thermo=(NASA([200.00, 1000.00],
                     [ 3.57953350E+00, -6.10353690E-04,  1.01681430E-06,
                       9.07005860E-10, -9.04424490E-13, -1.43440860E+04,
                       3.50840930E+00]),
                NASA([1000.00, 6000.00],
                     [ 3.04848590E+00,  1.35172810E-03, -4.85794050E-07,
                       7.88536440E-11, -4.69807460E-15, -1.42661170E+04,
                       6.01709770E+00])),
        transport=gas_transport(geom='linear',
                                diam=3.65,
                                well_depth=98.1,
                                polar=1.95,
                                rot_relax=1.8),
        note='RUS79')

species(name='CO2',
        atoms='C:1 O:2',
        thermo=(NASA([200.00, 1000.00],
                     [ 2.35681300E+00,  8.98412990E-03, -7.12206320E-06,
                       2.45730080E-09, -1.42885480E-13, -4.83719710E+04,
                       9.90090350E+00]),
                NASA([1000.00, 6000.00],
                     [ 4.63651110E+00,  2.74145690E-03, -9.95897590E-07,
                       1.60386660E-10, -9.16198570E-15, -4.90249040E+04,
                      -1.93489550E+00])),
        transport=gas_transport(geom='linear',
                                diam=3.763,
                                well_depth=244.0,
                                polar=2.65,
                                rot_relax=2.1),
        note='L7/88')

species(name='HOCO',
        atoms='H:1 C:1 O:2',
        thermo=(NASA([200.00, 1000.00],
                     [ 2.92207919E+00,  7.62453859E-03,  3.29884437E-06,
                      -1.07135205E-08,  5.11587057E-12, -2.30281524E+04,
                       1.12925886E+01]),
                NASA([1000.00, 6000.00],
                     [ 5.39206152E+00,  4.11221455E-03, -1.48194900E-06,
                       2.39875460E-10, -1.43903104E-14, -2.38606717E+04,
                      -2.23529091E+00])),
        transport=gas_transport(geom='nonlinear',
                                diam=3.59,
                                well_depth=498.0,
                                rot_relax=2.0),
        note='T05/06')

species(name='CH4',
        atoms='C:1 H:4',
        thermo=(NASA([200.00, 1000.00],
                     [ 5.14911468E+00, -1.36622009E-02,  4.91453921E-05,
                      -4.84246767E-08,  1.66603441E-11, -1.02465983E+04,
                      -4.63848842E+00]),
                NASA([1000.00, 6000.00],
                     [ 1.65326226E+00,  1.00263099E-02, -3.31661238E-06,
                       5.36483138E-10, -3.14696758E-14, -1.00095936E+04,
                       9.90506283E+00])),
        transport=gas_transport(geom='nonlinear',
                                diam=3.746,
                                well_depth=141.4,
                                polar=2.6,
                                rot_relax=13.0),
        note='G8/99')

species(name='CH3',
        atoms='C:1 H:3',
        thermo=(NASA([200.00, 1000.00],
                     [ 3.65717970E+00,  2.12659790E-03,  5.45838830E-06,
                      -6.61810030E-09,  2.46570740E-12,  1.64227160E+04,
                       1.67353540E+00]),
                NASA([1000.00, 6000.00],
                     [ 2.97812060E+00,  5.79785200E-03, -1.97558000E-06,
                       3.07297900E-10, -1.79174160E-14,  1.65095130E+04,
                       4.72247990E+00])),
        transport=gas_transport(geom='linear',
                                diam=3.8,
                                well_depth=144.0),
        note='IU0702')

species(name='CH2',
        atoms='C:1 H:2',
        thermo=(NASA([200.00, 1000.00],
                     [ 3.71757846E+00,  1.27391260E-03,  2.17347251E-06,
                      -3.48858500E-09,  1.65208866E-12,  4.58723866E+04,
                       1.75297945E+00]),
                NASA([1000.00, 6000.00],
                     [ 3.14631886E+00,  3.03671259E-03, -9.96474439E-07,
                       1.50483580E-10, -8.57335515E-15,  4.60412605E+04,
                       4.72341711E+00])),
        transport=gas_transport(geom='linear',
                                diam=3.8,
                                well_depth=144.0),
        note='IU3/03')

species(name='CH2(S)',
        atoms='C:1 H:2',
        thermo=(NASA([200.00, 1000.00],
                     [ 4.19331325E+00, -2.33105184E-03,  8.15676451E-06,
                      -6.62985981E-09,  1.93233199E-12,  5.03662246E+04,
                      -7.46734310E-01]),
                NASA([1000.00, 6000.00],
                     [ 3.13501686E+00,  2.89593926E-03, -8.16668090E-07,
                       1.13572697E-10, -6.36262835E-15,  5.05040504E+04,
                       4.06030621E+00])),
        transport=gas_transport(geom='linear',
                                diam=3.8,
                                well_depth=144.0),
        note='IU6/03')

species(name='C',
        atoms='C:1',
        thermo=(NASA([200.00, 1000.00],
                     [ 2.55423950E+00, -3.21537720E-04,  7.33792230E-07,
                      -7.32234870E-10,  2.66521440E-13,  8.54426810E+04,
                       4.53130850E+00]),
                NASA([1000.00, 6000.00],
                     [ 2.60558300E+00, -1.95934340E-04,  1.06737220E-07,
                      -1.64239400E-11,  8.18705800E-16,  8.54117420E+04,
                       4.19238680E+00])),
        transport=gas_transport(geom='atom',
                                diam=3.298,
                                well_depth=71.4),
        note='L7/88')

species(name='CH',
        atoms='C:1 H:1',
        thermo=(NASA([200.00, 1000.00],
                     [ 3.48975830E+00,  3.24321600E-04, -1.68997510E-06,
                       3.16284200E-09, -1.40618030E-12,  7.06126460E+04,
                       2.08428410E+00]),
                NASA([1000.00, 6000.00],
                     [ 2.52093690E+00,  1.76536390E-03, -4.61476600E-07,
                       5.92896750E-11, -3.34745010E-15,  7.09467690E+04,
                       7.40518290E+00])),
        transport=gas_transport(geom='linear',
                                diam=2.75,
                                well_depth=80.0),
        note='IU3/03')

species(name='CHV',
        atoms='C:1 H:1',
        thermo=(NASA([300.00, 1000.00],
                     [ 3.20020200E+00,  2.07287500E-03, -5.13443100E-06,
                       5.73389000E-09, -1.95553300E-12,  1.03937140E+05,
                       3.33158700E+00]),
                NASA([1000.00, 5000.00],
                     [ 2.19622300E+00,  2.34038100E-03, -7.05820100E-07,
                       9.00758200E-11, -3.85504000E-15,  1.04195590E+05,
                       9.17837300E+00])),
        transport=gas_transport(geom='linear',
                                diam=2.75,
                                well_depth=80.0),
        note='073003')

species(name='CH3O2H',
        atoms='C:1 H:4 O:2',
        thermo=(NASA([200.00, 1000.00],
                     [ 2.90540897E+00,  1.74994735E-02,  5.28243630E-06,
                      -2.52827275E-08,  1.34368212E-11, -1.68894632E+04,
                       1.13741987E+01]),
                NASA([1000.00, 6000.00],
                     [ 7.76538058E+00,  8.61499712E-03, -2.98006935E-06,
                       4.68638071E-10, -2.75339255E-14, -1.82979984E+04,
                      -1.43992663E+01])),
        transport=gas_transport(geom='nonlinear',
                                diam=3.626,
                                well_depth=481.8,
                                rot_relax=1.0),
        note='A7/05')

species(name='CH3O2',
        atoms='H:3 C:1 O:2',
        thermo=(NASA([300.00, 1374.00],
                     [ 1.97339205E+00,  1.53542340E-02, -6.37314891E-06,
                       3.19930565E-10,  2.82193915E-13,  2.54278835E+02,
                       1.69194215E+01]),
                NASA([1374.00, 5000.00],
                     [ 6.47970487E+00,  7.44401080E-03, -2.52348555E-06,
                       3.89577296E-10, -2.25182399E-14, -1.56285441E+03,
                      -8.19477074E+00])),
        transport=gas_transport(geom='nonlinear',
                                diam=3.626,
                                well_depth=481.8,
                                rot_relax=1.0))

species(name='CH2O2H',
        atoms='C:1 H:3 O:2',
        thermo=(NASA([300.00, 1410.00],
                     [ 2.88976454E+00,  2.09465776E-02, -1.75190772E-05,
                       7.27819787E-09, -1.18912344E-12,  6.12390620E+03,
                       1.23802076E+01]),
                NASA([1410.00, 5000.00],
                     [ 9.24697852E+00,  4.60845541E-03, -1.53501472E-06,
                       2.34434830E-10, -1.34573106E-14,  4.11529953E+03,
                      -2.11503248E+01])),
        transport=gas_transport(geom='nonlinear',
                                diam=3.496,
                                well_depth=238.4,
                                rot_relax=1.5),
        note='9/1/12')

species(name='CH3OH',
        atoms='C:1 H:4 O:1',
        thermo=(NASA([200.00, 1000.00],
                     [ 5.65851051E+00, -1.62983419E-02,  6.91938156E-05,