THERMO ALL
   300.000  1000.000  5000.000

H                 120186H   1               G  0300.00   5000.00  1000.00      1
 0.02500000E+02 0.00000000E+00 0.00000000E+00 0.00000000E+00 0.00000000E+00    2
 0.02547163E+06-0.04601176E+01 0.02500000E+02 0.00000000E+00 0.00000000E+00    3
 0.00000000E+00 0.00000000E+00 0.02547163E+06-0.04601176E+01                   4
H2                121286H   2               G  0300.00   5000.00  1000.00      1
 0.02991423E+02 0.07000644E-02-0.05633829E-06-0.09231578E-10 0.01582752E-13    2
-0.08350340E+04-0.01355110E+02 0.03298124E+02 0.08249442E-02-0.08143015E-05    3
-0.09475434E-09 0.04134872E-11-0.01012521E+05-0.03294094E+02                   4
O                 120186O   1               G  0300.00   5000.00  1000.00      1
 0.02542060E+02-0.02755062E-03-0.03102803E-07 0.04551067E-10-0.04368052E-14    2
 0.02923080E+06 0.04920308E+02 0.02946429E+02-0.01638166E-01 0.02421032E-04    3
-0.01602843E-07 0.03890696E-11 0.02914764E+06 0.02963995E+02                   4
O2                121386O   2               G  0300.00   5000.00  1000.00      1
 0.03697578E+02 0.06135197E-02-0.01258842E-05 0.01775281E-09-0.01136435E-13    2
-0.01233930E+05 0.03189166E+02 0.03212936E+02 0.01127486E-01-0.05756150E-05    3
 0.01313877E-07-0.08768554E-11-0.01005249E+05 0.06034738E+02                   4
OH         7/13/ 0 RUCICH   1O   1    0    0G   300.000  5000.000 1710.000    01
 2.85376040E+00 1.02994334E-03-2.32666477E-07 1.93750704E-11-3.15759847E-16    2
 3.69949720E+03 5.78756825E+00 3.41896226E+00 3.19255801E-04-3.08292717E-07    3
 3.64407494E-10-1.00195479E-13 3.45264448E+03 2.54433372E+00                   4
H2O                20387H   2O   1          G  0300.00   5000.00  1000.00      1
 0.02672146E+02 0.03056293E-01-0.08730260E-05 0.01200996E-08-0.06391618E-13    2
-0.02989921E+06 0.06862817E+02 0.03386842E+02 0.03474982E-01-0.06354696E-04    3
 0.06968581E-07-0.02506588E-10-0.03020811E+06 0.02590233E+02                   4
HO2               L 5/89H   1O   2          G   200.000  3500.000  1000.000    1
 4.01721090E+00 2.23982013E-03-6.33658150E-07 1.14246370E-10-1.07908535E-14    2
 1.11856713E+02 3.78510215E+00 4.30179801E+00-4.74912051E-03 2.11582891E-05    3
-2.42763894E-08 9.29225124E-12 2.94808040E+02 3.71666245E+00                   4
H2O2              120186H   2O   2          G  0300.00   5000.00  1000.00      1
 0.04573167E+02 0.04336136E-01-0.01474689E-04 0.02348904E-08-0.01431654E-12    2
-0.01800696E+06 0.05011370E+01 0.03388754E+02 0.06569226E-01-0.01485013E-05    3
-0.04625806E-07 0.02471515E-10-0.01766315E+06 0.06785363E+02                   4
CO        29/11/04      C   1O   1    0    0G   300.000  5000.000 1429.000     1
 3.11216890E+00 1.15948283E-03-3.38480362E-07 4.41403098E-11-2.12862228E-15    2
-1.42718539E+04 5.71725177E+00 3.19036352E+00 8.94419972E-04-3.24927563E-08    3
-1.04599967E-10 2.41965693E-14-1.42869054E+04 5.33277914E+00                   4
CO2       29/11/04      C   1O   2    0    0G   300.000  5000.000 1380.000     1
 5.18953018E+00 2.06006476E-03-7.33575324E-07 1.17004374E-10-6.91729215E-15    2
-4.93178953E+04-5.18289303E+00 2.57930490E+00 8.24684987E-03-6.42716047E-06    3
 2.54637024E-09-4.12030443E-13-4.84162830E+04 8.81141041E+00                   4
CH2O       6/29/04 RUSCIC   1H   2O   1    0G   300.000  5000.000 1486.000    01
 4.02068394E+00 5.09903417E-03-1.76430480E-06 2.76025879E-10-1.60998042E-14    2
-1.49287258E+04 1.06525547E+00 3.00754197E+00 3.04729496E-03 5.25109246E-06    3
-5.12019281E-09 1.27133795E-12-1.41188397E+04 8.10120233E+00                   4
HCO       29/11/04      H   1C   1O   1    0G   300.000  5000.000 1690.000     1
 3.44148164E+00 3.52157719E-03-1.24136118E-06 1.97328644E-10-1.16538616E-14    2
 3.97409684E+03 6.24593456E+00 3.81049965E+00 8.13269825E-04 3.13164701E-06    3
-2.39478268E-09 5.06894554E-13 4.03859901E+03 4.94843165E+00                   4
HO2CHO     6/26/95 THERMC   1H   2O   3     G   300.000  5000.000 1378.00     21
 9.87503878E+00 4.64663708E-03-1.67230522E-06 2.68624413E-10-1.59595232E-14    2
-3.80502496E+04-2.24939155E+01 2.42464726E+00 2.19706380E-02-1.68705546E-05    3
 6.25612194E-09-9.11645843E-13-3.54828006E+04 1.75027796E+01                   4
O2CHO      6/26/95 THERMC   1H   1O   3     G   300.000  5000.000 1368.00     11
 7.24075139E+00 4.63312951E-03-1.63693995E-06 2.59706693E-10-1.52964699E-14    2
-1.87027618E+04-6.49547212E+00 3.96059309E+00 1.06002279E-02-5.25713351E-06    3
 1.01716726E-09-2.87487602E-14-1.73599383E+04 1.17807483E+01                   4
OCHO       2/14/95 THERMC   1H   1O   2     G   300.000  5000.000 1690.00     01
 6.12628782E+00 3.75602932E-03-1.42010352E-06 2.36429200E-10-1.44167651E-14    2
-2.17698466E+04-8.01574694E+00 1.35213452E+00 1.50082004E-02-1.09896141E-05    3
 3.73679840E-09-4.81014498E-13-2.02253647E+04 1.74373147E+01                   4
CH2OH      2/25/ 4 THERMC   1H   3O   1    0G   300.000  5000.000 1399.000    11
 5.41875913E+00 5.66185244E-03-1.87471136E-06 2.84441938E-10-1.62299798E-14    2
-3.61475540E+03-3.49277963E+00 3.05674228E+00 1.19335634E-02-8.72501303E-06    3
 3.82781054E-09-7.22887951E-13-2.83140190E+03 8.98878133E+00                   4
CH3O       8/ 9/ 4 THERMC   1H   3O   1    0G   300.000  5000.000 1509.000    01
 4.64787019E+00 6.90830683E-03-2.34404776E-06 3.61994570E-10-2.09253541E-14    2
-2.99208881E+02-1.57740193E+00 2.23058023E+00 8.53178586E-03 1.02166624E-06    3
-3.41046916E-09 9.94691038E-13 9.45939708E+02 1.28377569E+01                   4
CH3O2H     1/14/ 5 THERMC   1H   4O   2    0G   300.000  5000.000 1367.000    21
 8.80409289E+00 8.09427218E-03-2.85843274E-06 4.53369754E-10-2.66980707E-14    2
-1.98512174E+04-2.17000591E+01 2.83880024E+00 1.86096249E-02-8.48165412E-06    3
 1.00387451E-09 1.71612429E-13-1.74033753E+04 1.16092433E+01                   4
CH3O2      1/14/ 5 THERMC   1H   3O   2    0G   300.000  5000.000 1365.000    11
 6.34718801E+00 7.92089358E-03-2.76601913E-06 4.35360631E-10-2.54984762E-14    2
-1.83436055E+03-7.42552545E+00 3.80497590E+00 9.80784660E-03-3.90940624E-07    3
-2.23072602E-09 6.43310820E-13-4.55625796E+02 7.81789100E+00                   4
CH4       29/11/04      H   4C   1    0    0G   300.000  5000.000 1462.000     1
 4.09617653E+00 7.44330845E-03-2.63871900E-06 4.19577604E-10-2.47508050E-14    2
-1.13835704E+04-4.67561383E+00 3.72113020E+00-2.50293289E-03 1.90246534E-05    3
-1.46871253E-08 3.43791152E-12-1.01424099E+04 1.22776596E+00                   4
CH3                     C   1H   3    0    0G   300.000  5000.000 1389.000    01
 3.51281376E+00 5.11412613E-03-1.67632050E-06 2.52495174E-10-1.43302923E-14    2
 1.61238027E+04 1.62436112E+00 3.43858162E+00 4.07752664E-03 3.19830994E-07    3
-9.47669390E-10 2.21828166E-13 1.63164018E+04 2.52807406E+00                   4
CH2               120186C   1H   2          G  0250.00   4000.00  1000.00      1
 0.03636408E+02 0.01933057E-01-0.01687016E-05-0.01009899E-08 0.01808256E-12    2
 0.04534134E+06 0.02156561E+02 0.03762237E+02 0.01159819E-01 0.02489585E-05    3
 0.08800836E-08-0.07332435E-11 0.04536791E+06 0.01712578E+02                   4
CH2(S)             31287C   1H   2          G  0300.00   4000.00  1000.00      1
 0.03552889E+02 0.02066788E-01-0.01914116E-05-0.01104673E-08 0.02021350E-12    2
 0.04984975E+06 0.01686570E+02 0.03971265E+02-0.01699089E-02 0.01025369E-04    3
 0.02492551E-07-0.01981266E-10 0.04989368E+06 0.05753207E+00                   4
C2H6       8/ 4/ 4 THERMC   2H   6    0    0G   300.000  5000.000 1383.000    11
 6.05972630E+00 1.30382837E-02-4.48103942E-06 6.97762095E-10-4.05606353E-14    2
-1.35751226E+04-1.28608001E+01 4.78623203E-02 2.40569127E-02-1.15155912E-05    3
 2.48666238E-09-1.78343944E-13-1.10923014E+04 2.06544071E+01                   4
C2H5       8/ 4/ 4 THERMC   2H   5    0    0G   300.000  5000.000 1387.000    11
 5.88784390E+00 1.03076793E-02-3.46844396E-06 5.32499257E-10-3.06512651E-14    2
 1.15065499E+04-8.49651771E+00 1.32730217E+00 1.76656753E-02-6.14926558E-06    3
-3.01143466E-10 4.38617775E-13 1.34284028E+04 1.71789216E+01                   4
C2H4      10/ 4/ 5 THERMC   2H   4    0    0G   300.000  5000.000 1395.000    01
 5.22176372E+00 8.96137303E-03-3.04868886E-06 4.71465524E-10-2.72739592E-14    2
 3.60389679E+03-7.47789234E+00 2.33879687E-01 1.96334647E-02-1.16833214E-05    3
 3.64246453E-09-4.77442715E-13 5.46489338E+03 1.97084228E+01                   4
C2H3      10/ 4/ 5 THERMC   2H   3    0    0G   300.000  5000.000 1395.000    01
 5.07331248E+00 6.58316278E-03-2.23762924E-06 3.45803379E-10-1.99940490E-14    2
 3.37234748E+04-3.39792712E+00 1.25329724E+00 1.56258370E-02-1.07803879E-05    3
 4.18054634E-09-7.01360362E-13 3.50734773E+04 1.71341661E+01                   4
C2H2      10/ 4/ 5 THERMC   2H   2    0    0G   300.000  5000.000 1407.000    01
 4.98265164E+00 4.25992930E-03-1.37483523E-06 2.04717964E-10-1.15191740E-14    2
 2.52697118E+04-5.81321385E+00 2.06742667E+00 1.46568506E-02-1.52947063E-05    3
 8.30965761E-09-1.72932175E-12 2.59578589E+04 8.62758672E+00                   4
CH3CHO     8/10/ 4 THERMC   2H   4O   1    0G   300.000  5000.000 1377.000    11
 6.98518866E+00 9.67897787E-03-3.31841954E-06 5.16025901E-10-2.99725903E-14    2
-2.39807279E+04-1.27484852E+01 1.77060035E+00 1.84475161E-02-7.24138162E-06    3
 2.34364561E-10 3.35543891E-13-2.18078850E+04 1.65023437E+01                   4
CH3CO      8/10/ 4 THERMC   2H   3O   1    0G   300.000  5000.000 1371.000    11
 6.56682466E+00 7.55308669E-03-2.59966784E-06 4.05334994E-10-2.35876164E-14    2
-4.76690401E+03-8.83301965E+00 2.52884150E+00 1.37152173E-02-4.28607476E-06    3
-7.71684278E-10 4.83836380E-13-3.02546532E+03 1.40340315E+01                   4
CH2CO             121686C   2H   2O   1     G  0300.00   5000.00  1000.00      1
 0.06038817E+02 0.05804840E-01-0.01920954E-04 0.02794485E-08-0.01458868E-12    2
-0.08583402E+05-0.07657581E+02 0.02974971E+02 0.01211871E+00-0.02345046E-04    3
-0.06466685E-07 0.03905649E-10-0.07632637E+05 0.08673553E+02                   4
HCCO               32387H   1C   2O   1     G  0300.00   4000.00  1000.00      1
 0.06758073E+02 0.02000400E-01-0.02027607E-05-0.01041132E-08 0.01965165E-12    2
 0.01901513E+06-0.09071262E+02 0.05047965E+02 0.04453478E-01 0.02268283E-05    3
-0.01482095E-07 0.02250742E-11 0.01965892E+06 0.04818439E+01                   4
C2H5O      8/ 9/ 4 THERMC   2H   5O   1    0G   300.000  5000.000 1393.000    11
 8.23717244E+00 1.10885879E-02-3.78808372E-06 5.87613473E-10-3.40712889E-14    2
-6.22948597E+03-1.93190543E+01 2.87429022E-01 2.86500918E-02-1.83857008E-05    3
 6.03096179E-09-8.04562643E-13-3.35717377E+03 2.37513898E+01                   4
C2H5O2     1/14/ 5 THERMC   2H   5O   2    0G   300.000  5000.000 1387.000    21
 8.77641329E+00 1.18767163E-02-3.87683050E-06 5.83210754E-10-3.31006724E-14    2
-6.78748703E+03-1.83119972E+01 2.58630333E+00 2.61836362E-02-1.68306193E-05    3
 6.08749295E-09-9.57302040E-13-4.58588992E+03 1.50486289E+01                   4
C2H3O1-2   4/ 3/ 0 THERMC   2H   3O   1     G   300.000  5000.000 1492.000    01
 6.88486471E+00 6.94720501E-03-2.23214698E-06 3.32190767E-10-1.87124555E-14    2
 1.26442200E+04-1.23842570E+01-1.62965122E+00 2.93455486E-02-2.43737550E-05    3
 1.00522325E-08-1.61259036E-12 1.52459425E+04 3.22782741E+01                   4
CH3COCH3   8/30/ 4 THERMC   3H   6O   1    0G   300.000  5000.000 1382.000    21
 9.62674379E+00 1.45519245E-02-4.97749457E-06 7.72794591E-10-4.48367165E-14    2
-3.11862263E+04-2.61613449E+01 1.24527408E+00 2.99760255E-02-1.40026661E-05    3
 2.16453512E-09 1.27637295E-13-2.78348727E+04 2.03682615E+01                   4
CH3COCH2   8/30/ 4 THERMC   3H   5O   1    0G   300.000  5000.000 1388.000    21
 1.08892477E+01 1.11540675E-02-3.85516785E-06 6.02834048E-10-3.51533449E-14    2
-1.00741464E+04-3.18043322E+01 1.22337251E+00 3.24546742E-02-2.13542518E-05    3
 6.96777735E-09-8.99160299E-13-6.59419324E+03 2.05537233E+01                   4
C2H3CHO    6/26/95 THERMC   3H   4O   1     G   300.000  5000.000 1393.000    11
 1.04184959E+01 9.48963321E-03-3.29310529E-06 5.16279203E-10-3.01587291E-14    2
-1.49630281E+04-3.07235061E+01 2.92355162E-01 3.54321417E-02-2.94936324E-05    3
 1.28100124E-08-2.26144108E-12-1.16521584E+04 2.28878280E+01                   4
C2H3CO     4/ 3/ 0 THERMC   3H   3O   1     G   300.000  5000.000 1402.000    01
 9.37467676E+00 7.91296900E-03-2.67198280E-06 4.11115430E-10-2.36978981E-14    2
 1.92969514E+03-2.40892696E+01 1.36242013E+00 3.15273972E-02-3.00218935E-05    3
 1.48167112E-08-2.87971530E-12 4.25770215E+03 1.72626546E+01                   4
C2H5CO     8/10/ 4 THERMC   3H   5O   1    0G   300.000  5000.000 1362.000    21
 1.00147418E+01 1.61527961E-02-6.62976122E-06 1.15290667E-09-7.21263458E-14    2
-1.00430305E+04-2.88570933E+01 8.35352246E+00-4.08739727E-03 3.64217954E-05    3
-2.72457713E-08 6.06440266E-12-6.58577307E+03-1.05948346E+01                   4
IC3H7      8/ 4/ 4 THERMC   3H   7    0    0G   300.000  5000.000 1373.000    21
 8.14705217E+00 1.58727106E-02-5.44611541E-06 8.47207689E-10-4.92178752E-14    2
 6.18073367E+03-1.91980850E+01 1.63417589E+00 2.40171372E-02-4.72808067E-06    3
-3.24354603E-09 1.23539044E-12 9.20752889E+03 1.83848082E+01                   4
C3H6      10/23/ 5 THERMC   3H   6    0    0G   300.000  5000.000 1388.000    11
 8.01595958E+00 1.37023634E-02-4.66249733E-06 7.21254402E-10-4.17370126E-14    2
-1.76749303E+03-2.00160668E+01 3.94615444E-01 2.89107662E-02-1.54886808E-05    3
 3.88814209E-09-3.37890352E-13 1.17760132E+03 2.19003736E+01                   4
C3H5-A    10/23/ 5 THERMC   3H   5    0    0G   300.000  5000.000 1397.000    01
 8.45883958E+00 1.12695483E-02-3.83792864E-06 5.94059119E-10-3.43918030E-14    2
 1.64683289E+04-2.32704266E+01-5.29131958E-01 3.34559100E-02-2.53401027E-05    3
 1.02865754E-08-1.73258340E-12 1.94941423E+04 2.46172315E+01                   4
C3H5-S    10/23/ 5 THERMC   3H   5    0    0G   300.000  5000.000 1390.000    11
 7.88765879E+00 1.13012591E-02-3.84213130E-06 5.93982677E-10-3.43567175E-14    2
 2.83484913E+04-1.74291589E+01 1.32807335E+00 2.53107914E-02-1.51530439E-05    3
 4.74345565E-09-6.24666084E-13 3.07981100E+04 1.83328787E+01                   4
C3H5-T    10/23/ 5 THERMC   3H   5    0    0G   300.000  5000.000 1382.000    11
 7.37492443E+00 1.17510061E-02-4.00021283E-06 6.18947395E-10-3.58215018E-14    2
 2.73982108E+04-1.43478655E+01 2.17916644E+00 2.03826623E-02-7.91413834E-06    3
 4.76906187E-10 2.70398536E-13 2.96002535E+04 1.48785684E+01                   4
C3H4-P            101993H   4C   3          G  0300.00   4000.00  1400.00      1
 0.09768102E+02 0.05219151E-01-0.03753140E-05-0.02992191E-08 0.05107878E-12    2
 0.01860277E+06-0.03020678E+03 0.03029730E+02 0.01498961E+00-0.01398500E-04    3
-0.03969619E-07 0.01388217E-10 0.02148408E+06 0.08004594E+02                   4
C3H4-A            101993H   4C   3          G  0300.00   4000.00  1400.00      1
 0.09776256E+02 0.05302138E-01-0.03701118E-05-0.03026386E-08 0.05089581E-12    2
 0.01954972E+06-0.03077061E+03 0.02539831E+02 0.01633437E+00-0.01764950E-04    3
-0.04647365E-07 0.01729131E-10 0.02251243E+06 0.09935702E+02                   4
C3H3               82489C   3H   3          G  0300.00   4000.00  1000.00      1
 0.08831047E+02 0.04357195E-01-0.04109067E-05-0.02368723E-08 0.04376520E-12    2
 0.03847420E+06-0.02177919E+03 0.04754200E+02 0.01108028E+00 0.02793323E-05    3
-0.05479212E-07 0.01949629E-10 0.03988883E+06 0.05854549E+01                   4
C3H2              102193H   2C   3          G  0150.00   4000.00  1000.00      1
 0.07670981E+02 0.02748749E-01-0.04370943E-05-0.06455599E-09 0.01663887E-12    2
 0.06259722E+06-0.01236890E+03 0.03166714E+02 0.02482572E+00-0.04591637E-03    3
 0.04268019E-06-0.01482152E-09 0.06350421E+06 0.08869446E+02                   4
C3H5O      7/20/95 THERMC   3H   5O   1    0G   300.000  5000.000 1380.000    11
 1.02551752E+01 1.14983720E-02-3.84645659E-06 5.88910346E-10-3.38557923E-14    2
 6.26560810E+03-2.77655042E+01 1.19822582E+00 3.05579837E-02-1.80630276E-05    3
 4.86150033E-09-4.19854562E-13 9.58217784E+03 2.15566221E+01                   4
C3H6OOH2-1 7/19/ 0 THERMC   3H   7O   2    0G   300.000  5000.000 1407.000    41
 1.42163221E+01 1.43382450E-02-4.78004477E-06 7.29133134E-10-4.17761973E-14    2
-5.67381620E+03-4.35770997E+01 2.09193950E+00 4.69220394E-02-3.90280831E-05    3
 1.72381453E-08-3.07968979E-12-1.89377918E+03 2.00178282E+01                   4
C3H6OOH2-1O2 7/19/ 0 TRMC   3H   7O   4    0G   300.000  5000.000 1386.000    51
 1.91759159E+01 1.59857013E-02-5.61306378E-06 8.86880495E-10-5.20877040E-14    2
-2.64412115E+04-6.77512936E+01 2.65196584E+00 5.74638149E-02-4.72190867E-05    3
 2.05591557E-08-3.68787387E-12-2.08829371E+04 2.01547955E+01                   4
IC3H7O2    7/19/ 0 THERMC   3H   7O   2    0G   300.000  5000.000 1388.000    31
 1.32493493E+01 1.64082190E-02-5.67432062E-06 8.87336340E-10-5.17361535E-14    2
-1.44109855E+04-4.29066213E+01 1.49941639E+00 4.43081205E-02-3.22414456E-05    3
 1.29687136E-08-2.23370569E-12-1.02587980E+04 2.02336490E+01                   4
C3KET21    7/19/ 0 THERMC   3H   6O   3    0G   300.000  5000.000 1371.000    41
 1.56377776E+01 1.44059342E-02-5.08808082E-06 8.07076119E-10-4.75295650E-14    2
-4.30657975E+04-5.13105869E+01 4.55686367E+00 3.57076837E-02-1.94712054E-05    3
 4.70695431E-09-3.69753807E-13-3.86710975E+04 9.97761694E+00                   4
CH3CHCO   03/03/95 THERMC   3H   4O   1    0G   300.000  5000.000 1400.00     41
 1.00219123E+01 9.56966300E-03-3.26221644E-06 5.05231706E-10-2.92593257E-14    2
-1.42482738E+04-2.77829973E+01 1.48380119E+00 3.22203013E-02-2.70250033E-05    3
 1.20499164E-08-2.18365931E-12-1.15276540E+04 1.71552068E+01                   4
SC4H9      8/ 4/ 4 THERMC   4H   9    0    0G   300.000  5000.000 1381.000    31
 1.16934304E+01 1.96402287E-02-6.65306517E-06 1.02631895E-09-5.92826294E-14    2
 1.96382429E+03-3.61626672E+01 8.49159986E-01 3.82085320E-02-1.49626797E-05    3
 2.04499211E-10 8.24254437E-13 6.38832956E+03 2.44466606E+01                   4
IC4H9      8/ 4/ 4 THERMC   4H   9    0    0G   300.000  5000.000 1386.000    31
 1.21276930E+01 1.98689494E-02-6.85937004E-06 1.07141528E-09-6.24184609E-14    2
 2.11952051E+03-4.08727278E+01-2.21457835E-01 4.63756324E-02-2.88282920E-05    3
 9.60200646E-09-1.39021034E-12 6.76153637E+03 2.64801220E+01                   4
TC4H9      8/ 4/ 4 THERMC   4H   9    0    0G   300.000  5000.000 1372.000    31
 1.05855083E+01 2.11892055E-02-7.31668360E-06 1.14296173E-09-6.65898835E-14    2
 3.18311189E+02-3.20671258E+01 3.04300181E+00 2.91276259E-02-4.01386786E-06    3
-4.90273974E-09 1.64014891E-12 4.04780980E+03 1.21127351E+01                   4
IC4H8     10/23/ 5 THERMC   4H   8    0    0G   300.000  5000.000 1388.000    21
 1.12258330E+01 1.81795798E-02-6.20348592E-06 9.61444458E-10-5.57088057E-14    2
-7.90617899E+03-3.66411888E+01 9.38433173E-01 3.90547287E-02-2.16437148E-05    3
 5.87267077E-09-6.14435479E-13-3.95452013E+03 1.98337802E+01                   4
IC4H7     10/23/ 5 THERMC   4H   7    0    0G   300.000  5000.000 1393.000    11
 1.16382753E+01 1.57681299E-02-5.38538858E-06 8.35172927E-10-4.84141083E-14    2
 1.03408230E+04-3.90259890E+01-7.20881697E-04 4.36495730E-02-3.16385877E-05    3
 1.23984983E-08-2.04378360E-12 1.43654373E+04 2.33234340E+01                   4
TC4H9O2    7/19/ 0 THERMC   4H   9O   2    0G   300.000  5000.000 1388.000    41
 1.67061556E+01 2.07327780E-02-7.17596169E-06 1.12282473E-09-6.54941386E-14    2
-2.04046924E+04-6.35558608E+01 1.08742583E+00 5.82780709E-02-4.33292697E-05    3
 1.76892535E-08-3.06769606E-12-1.49456640E+04 2.01871963E+01                   4
IC4H9O2    7/19/ 0 THERMC   4H   9O   2    0G   300.000  5000.000 1387.000    41
 1.59741221E+01 2.13534740E-02-7.39001105E-06 1.15624411E-09-6.74408046E-14    2
-1.72329304E+04-5.65302409E+01 1.21434293E+00 5.45388311E-02-3.67001593E-05    3
 1.34131042E-08-2.11741793E-12-1.18482450E+04 2.34153048E+01                   4
IC4H8O2H-I 7/19/ 0 THERMC   4H   9O   2    0G   300.000  5000.000 1388.000    51
 1.80246456E+01 1.93668264E-02-6.74676496E-06 1.06040129E-09-6.20506445E-14    2
-1.00858977E+04-6.57629693E+01 9.94784793E-01 5.89212240E-02-4.25202225E-05    3
 1.61370574E-08-2.55904902E-12-4.08029057E+03 2.58950880E+01                   4
TC4H9O     8/ 9/ 4 THERMC   4H   9O   1    0G   300.000  5000.000 1397.000    31
 1.50819361E+01 1.94454128E-02-6.61333610E-06 1.02279160E-09-5.91796928E-14    2
-1.88111456E+04-5.71658947E+01-5.32084074E-01 5.71613469E-02-4.20177228E-05    3
 1.63745425E-08-2.64124700E-12-1.34963439E+04 2.62776957E+01                   4
TC4H9O2H   7/19/ 0 THERMC   4H  10O   2    0G   300.000  5000.000 1390.000    51
 1.91617041E+01 2.09157249E-02-7.27346821E-06 1.14180989E-09-6.67577135E-14    2
-3.83201687E+04-7.78230874E+01 1.14505932E-01 6.71507854E-02-5.15578410E-05    3
 2.10256365E-08-3.56467024E-12-3.17928725E+04 2.40011030E+01                   4
IC4H7O     4/ 3/ 0 THERMC   4H   7O   1     G   300.000  5000.000 1386.000    21
 1.33457615E+01 1.61218588E-02-5.44376403E-06 8.38199374E-10-4.83608280E-14    2
 6.11443644E+02-4.36818838E+01 1.74700687E+00 4.07783436E-02-2.44750243E-05    3
 7.06502958E-09-7.51570589E-13 4.86979233E+03 1.94535999E+01                   4
IC3H7CHO   2/22/96 THERMC   4H   8O   1    0G   300.000  5000.000 1391.000    31
 1.37501656E+01 1.83126722E-02-6.28572629E-06 9.78250756E-10-5.68538653E-14    2
-3.26936771E+04-4.77270548E+01-2.73021382E-01 4.89696307E-02-3.12770049E-05    3
 1.00052945E-08-1.27512074E-12-2.76054737E+04 2.83451139E+01                   4
TC3H6CHO   2/22/96 THERMC   4H   7O   1    0G   300.000  5000.000 1389.000    21
 1.31013047E+01 1.66391865E-02-5.68457623E-06 8.81808351E-10-5.11290161E-14    2
-1.30638647E+04-4.42705813E+01 1.87052762E+00 4.14869677E-02-2.66815701E-05    3
 9.01531610E-09-1.27870633E-12-8.97730744E+03 1.66174178E+01                   4
IC4H8OOH-IO2 7/19/ 0 TRMC   4H   9O   4    0G   300.000  5000.000 1385.000    61
 2.18969581E+01 2.09637874E-02-7.34664900E-06 1.15926594E-09-6.80225413E-14    2
-2.92664889E+04-8.20540807E+01 2.39424426E+00 6.76572549E-02-5.17083682E-05    3
 2.10796041E-08-3.59960373E-12-2.24787495E+04 2.25029839E+01                   4
IC4KETII   7/19/ 0 THERMC   4H   8O   3    0G   300.000  5000.000 1387.000    51
 1.95143059E+01 1.82377395E-02-6.38908606E-06 1.00801571E-09-5.91440350E-14    2
-4.46884836E+04-7.17167584E+01 1.15501614E+00 6.10622345E-02-4.49711323E-05    3
 1.70514654E-08-2.65948602E-12-3.82747956E+04 2.69612235E+01                   4
IC4H7OH    4/ 8/97 THERMC   4H   8O   1     G   300.000  5000.000 1384.000    31
 1.35043419E+01 1.78646968E-02-5.99304371E-06 9.18717641E-10-5.28435302E-14    2
-2.58255688E+04-4.44645715E+01 1.69099899E+00 4.27168891E-02-2.49281695E-05    3
 7.00961522E-09-7.23262828E-13-2.14512334E+04 1.99500833E+01                   4
IC4H6OH    8/19/95 THERMC   4H   7O   1     G   300.000  5000.000 1390.00     31
 1.40310926E+01 1.55317541E-02-5.32754961E-06 8.28785902E-10-4.81545257E-14    2
-7.69378228E+03-4.76555306E+01 8.63371227E-01 4.68711282E-02-3.43580339E-05    3
 1.33031052E-08-2.13914975E-12-3.14948305E+03 2.29075523E+01                   4
IC3H5CHO   7/19/95 THERMC   4H   6O   1     G   300.000  5000.000 1396.00     21
 1.36203958E+01 1.37917192E-02-4.73370118E-06 7.36655226E-10-4.20097974E-14    2
-2.00025274E+04-4.73184531E+01 6.27183793E-01 4.66780254E-02-3.74430631E-05    3
 1.58330542E-08-2.73952155E-12-1.57203117E+04 2.16034294E+01                   4
IC3H5CO    4/ 3/ 0 THERMC   4H   5O   1     G   300.000  5000.000 1397.000    21
 1.30667437E+01 1.16704244E-02-3.99106523E-06 6.19498148E-10-3.59348249E-14    2
-3.36519344E+03-4.35803090E+01 1.85097069E+00 4.18855846E-02-3.62553731E-05    3
 1.65690659E-08-3.05850846E-12 1.70381441E+02 1.53014433E+01                   4
TC3H6OCHO  8/25/95 THERMC   4H   7O   2    0G   300.000  5000.000 1394.00     31
 1.70371287E+01 1.54400645E-02-5.28332886E-06 8.21085347E-10-4.76898429E-14    2
-2.75871941E+04-6.37271230E+01 3.70830259E-01 5.38475661E-02-3.82477565E-05    3
 1.32882237E-08-1.79228730E-12-2.18391262E+04 2.58142112E+01                   4
IC3H6CO   03/03/95 THERMC   4H   6O   1    0G   300.000  5000.000 1397.00     41
 1.32548232E+01 1.40142787E-02-4.78910215E-06 7.42924342E-10-4.30737566E-14    2
-2.00529779E+04-4.44810221E+01 2.28039055E+00 4.17016989E-02-3.25089661E-05    3
 1.37243419E-08-2.40573132E-12-1.63939712E+04 1.38187714E+01                   4
IC4H7OOH   7/19/95 THERMC   4H   8O   2     G   300.000  5000.000 1392.00     41
 1.69234564E+01 1.78396769E-02-6.14273279E-06 9.57895028E-10-5.57438304E-14    2
-2.00040686E+04-5.94746070E+01 2.99117402E+00 5.03349278E-02-3.56280061E-05    3
 1.33952154E-08-2.11053409E-12-1.51095046E+04 1.54537413E+01                   4
TC3H6O2CHO 8/ 2/95 THERMC   4H   7O   3     G   300.000  5000.000 1386.00     41
 1.85534443E+01 1.68774389E-02-5.90752965E-06 9.31518085E-10-5.46345187E-14    2
-2.85447191E+04-6.82486667E+01 2.17883383E+00 5.41595832E-02-3.83435886E-05    3
 1.38308104E-08-2.04190147E-12-2.27394154E+04 2.00751264E+01                   4
CH2CCH2OH  9/ 8/95 THERMC   3H   5O   1     G   300.000  5000.000 1372.00     21
 9.70702027E+00 1.13972660E-02-3.77993962E-06 5.75209277E-10-3.29229125E-14    2
 9.13212884E+03-2.25012933E+01 2.88422544E+00 2.42428071E-02-1.14152268E-05    3
 1.71775334E-09 1.42177454E-13 1.17935615E+04 1.52102335E+01                   4
BC5H11     8/ 4/ 4 THERMC   5H  11    0    0G   300.000  5000.000 1378.000    41
 1.38978149E+01 2.54963909E-02-8.78132157E-06 1.36944491E-09-7.96929021E-14    2
-3.85892889E+03-4.73886894E+01 2.35820469E+00 4.30754444E-02-1.43015489E-05    3
-1.04411703E-09 1.06104659E-12 1.20929341E+03 1.81181461E+01                   4
AC5H10     2/14/95      C   5H  10    0    0G   300.000  5000.000 1391.000    31
 1.45614087E+01 2.25370538E-02-7.70100060E-06 1.19467870E-09-6.92704808E-14    2
-1.18004520E+04-5.30651959E+01-2.76630603E-01 5.53539280E-02-3.54499620E-05    3
 1.19626854E-08-1.69878242E-12-6.39547297E+03 2.73911578E+01                   4
BC5H10     2/14/95      C   5H  10    0    0G   300.000  5000.000 1385.000    31
 1.39945443E+01 2.29446582E-02-7.82594153E-06 1.21260230E-09-7.02518457E-14    2
-1.31576943E+04-5.04083848E+01 1.20274147E+00 4.78872107E-02-2.48144766E-05    3
 5.73514355E-09-3.91266685E-13-8.15212335E+03 2.01592579E+01                   4
CC5H10     2/14/95      C   5H  10    0    0G   300.000  5000.000 1393.000    31
 1.46491909E+01 2.25422061E-02-7.72053001E-06 1.19958604E-09-6.96317745E-14    2
-1.11652332E+04-5.42252285E+01-1.83685605E+00 6.07709466E-02-4.21592576E-05    3
 1.56103972E-08-2.43142766E-12-5.34864282E+03 3.45203543E+01                   4
AC5H9-C    4/ 7/97 THERMC   5H   9    0    0G   300.000  5000.000 1391.000    21
 1.41589519E+01 2.08476156E-02-7.13922935E-06 1.10922683E-09-6.43869471E-14    2
 5.29567020E+03-5.21277925E+01-5.80051463E-01 5.36314838E-02-3.49295541E-05    3
 1.18648559E-08-1.67777526E-12 1.06267222E+04 2.76937030E+01                   4
CC5H9-B    4/ 7/97 THERMC   5H   9    0    0G   300.000  5000.000 1390.000    21
 1.37488177E+01 2.12968668E-02-7.31667105E-06 1.13927710E-09-6.62322892E-14    2
 4.95421077E+03-5.04875121E+01-1.34298383E+00 5.40081867E-02-3.39256098E-05    3
 1.08403555E-08-1.41074687E-12 1.04932842E+04 3.15398815E+01                   4
AC5H9O-C   5/14/ 3 THERMC   5H   9O   1    0G   300.000  5000.000 1395.000    31
 1.85587275E+01 1.84066669E-02-6.13501346E-06 9.37166339E-10-5.37971701E-14    2
-6.48338717E+03-7.12211423E+01-1.71420068E+00 6.90797467E-02-5.47098033E-05    3
 2.21062909E-08-3.58067814E-12 1.31695143E+02 3.63260717E+01                   4
CC5H9O-B   5/14/ 3 THERMC   5H   9O   1    0G   300.000  5000.000 1462.000    31
 2.16481795E+01 1.80406173E-02-6.50182738E-06 1.04533712E-09-6.21435998E-14    2
-9.81113059E+03-7.07098941E+01 3.19377260E+00 4.36720049E-02-6.98357532E-06    3
-1.04919571E-08 3.89181602E-12-1.82629880E+03 3.43211965E+01                   4
CH3CHCHO   8/10/ 4 THERMC   3H   5O   1    0G   300.000  5000.000 1253.000    21
 8.27772090E+00 1.95687188E-02-8.47575089E-06 1.53249728E-09-9.86441542E-14    2
-8.34456062E+03-2.17652483E+01-2.72811212E+00 3.80354483E-02-1.96782132E-05    3
 5.09554570E-09-7.28789092E-13-3.51122739E+03 4.04496677E+01                   4
BC6H12     4/ 7/97 THERMC   6H  12    0    0G   300.000  5000.000 1389.000    41
 1.73194968E+01 2.73143455E-02-9.32825404E-06 1.44663699E-09-8.38619242E-14    2
-1.72536853E+04-6.67708402E+01 6.61236759E-03 6.41016647E-02-3.85052017E-05    3
 1.17598218E-08-1.46218293E-12-1.08021940E+04 2.76294362E+01                   4
CC6H12     4/ 7/97 THERMC   6H  12    0    0G   300.000  5000.000 1393.000    41
 1.72953713E+01 2.74904466E-02-9.42213872E-06 1.46464229E-09-8.50427572E-14    2
-1.65683634E+04-6.72858572E+01-1.31890347E+00 6.85974519E-02-4.39881674E-05    3
 1.47291905E-08-2.05794505E-12-9.79395525E+03 3.36472333E+01                   4
C5H10-2    4/ 7/97 THERMC   5H  10    0    0G   300.000  5000.000 1389.000    31
 1.41109267E+01 2.28348272E-02-7.78626835E-06 1.20627491E-09-6.98795983E-14    2
-1.14336507E+04-5.01601163E+01-5.41560551E-01 5.39629918E-02-3.23508738E-05    3
 9.77416037E-09-1.18534668E-12-5.98606169E+03 2.97142748E+01                   4
IC4H7-I1   4/ 2/97 THERMC   4H   7    0    0G   300.000  5000.000 1389.000    21