!<><><><><><><><><><><><><><><><><><><><><><><><><><><><><><><><><><><><><!     
! REDUCED VERSION OF GRI-MECH 1.2. 22 SPECIES ( + N2, AR); 104 REACTIONS. !     
!                                 PENNSTATE,  DEC, 1994.                  !     
!<><><><><><><><><><><><><><><><><><><><><><><><><><><><><><><><><><><><><!     
ELEMENTS                                                                        
O  H  C  N  AR                                                                  
END                                                                             
SPECIES                                                                         
H2      H       O       O2      OH      H2O     HO2     H2O2                    
CH2     CH2-S   CH3     CH4     CO      CO2     HCO     CH2O                    
CH3O    C2H2    C2H3    C2H4    C2H5    C2H6                                    
N2      AR      NO      NO2     N2O     N                                                                
END                                                                             
REACTIONS                                                                       
O+H+M<=>OH+M                             5.000E+17   -1.000      0.00           
H2/2.00/ H2O/6.00/ CH4/2.00/ CO/1.50/ CO2/2.00/ C2H6/3.00/ AR/0.70/             
O+H2<=>H+OH                              5.000E+04    2.670   6290.00           
O+HO2<=>OH+O2                            2.000E+13    0.000      0.00           
O+CH2<=>H+HCO                            8.000E+13    0.000      0.00           
O+CH2-S <=>H+HCO                         1.500E+13    0.000      0.00           
O+CH3<=>H+CH2O                           8.430E+13    0.000      0.00           
O+CH4<=>OH+CH3                           1.020E+09    1.500   8600.00           
O+CO+M<=>CO2+M                           6.020E+14    0.000   3000.00           
H2/2.00/ O2/6.00/ H2O/6.00/ CH4/2.00/ CO/1.50/ CO2/3.50/ C2H6/3.00/ AR/0.50/    
O+HCO<=>OH+CO                            3.000E+13    0.000      0.00           
O+HCO<=>H+CO2                            3.000E+13    0.000      0.00           
O+CH2O<=>OH+HCO                          3.900E+13    0.000   3540.00           
O+C2H2<=>CH2-S +CO                       1.020E+07    2.000   1900.00           
O+C2H2<=>CO+CH2                          1.020E+07    2.000   1900.00           
O+C2H4<=>CH3+HCO                         1.920E+07    1.830    220.00           
O+C2H5<=>CH3+CH2O                        1.320E+14    0.000      0.00           
O+C2H6<=>OH+C2H5                         8.980E+07    1.920   5690.00           
O2+CO<=>O+CO2                            2.500E+12    0.000  47800.00           
O2+CH2O<=>HO2+HCO                        1.000E+14    0.000  40000.00           
H+O2+M<=>HO2+M                           2.800E+18   -0.860      0.00           
O2/0.00/ H2O/0.00/ CO/0.75/ CO2/1.50/ C2H6/1.50/ N2/0.00/ AR/0.00/              
H+2O2<=>HO2+O2                           3.000E+20   -1.720      0.00           
H+O2+H2O<=>HO2+H2O                       9.380E+18   -0.760      0.00           
H+O2+N2<=>HO2+N2                         3.750E+20   -1.720      0.00           
H+O2+AR<=>HO2+AR                         7.000E+17   -0.800      0.00           
H+O2<=>O+OH                              8.300E+13    0.000  14413.00           
2H+M<=>H2+M                              1.000E+18   -1.000      0.00           
H2/0.00/ H2O/0.00/ CH4/2.00/ CO2/0.00/ C2H6/3.00/ AR/0.63/                      
2H+H2<=>2H2                              9.000E+16   -0.600      0.00           
2H+H2O<=>H2+H2O                          6.000E+19   -1.250      0.00           
2H+CO2<=>H2+CO2                          5.500E+20   -2.000      0.00           
H+OH+M<=>H2O+M                           2.200E+22   -2.000      0.00           
H2/0.73/ H2O/3.65/ CH4/2.00/ C2H6/3.00/ AR/0.38/                                
H+HO2<=>O2+H2                            2.800E+13    0.000   1068.00           
H+HO2<=>2OH                              1.340E+14    0.000    635.00           
H+H2O2<=>HO2+H2                          1.210E+07    2.000   5200.00           
H+CH2(+M)<=>CH3(+M)                      2.500E+16   -0.800      0.00           
     LOW  /  3.200E+27   -3.140   1230.00/                                      
     TROE/  0.6800   78.00  1995.00  5590.00 /                                  
H2/2.00/ H2O/6.00/ CH4/2.00/ CO/1.50/ CO2/2.00/ C2H6/3.00/ AR/0.70/             
H+CH3(+M)<=>CH4(+M)                      1.270E+16   -0.630    383.00           
     LOW  /  2.477E+33   -4.760   2440.00/                                      
     TROE/  0.7830   74.00  2941.00  6964.00 /                                  
H2/2.00/ H2O/6.00/ CH4/2.00/ CO/1.50/ CO2/2.00/ C2H6/3.00/ AR/0.70/             
H+CH4<=>CH3+H2                           6.600E+08    1.620  10840.00           
H+HCO(+M)<=>CH2O(+M)                     1.090E+12    0.480   -260.00           
     LOW  /  1.350E+24   -2.570   1425.00/                                      
     TROE/  0.7824  271.00  2755.00  6570.00 /                                  
H2/2.00/ H2O/6.00/ CH4/2.00/ CO/1.50/ CO2/2.00/ C2H6/3.00/ AR/0.70/             
H+HCO<=>H2+CO                            7.340E+13    0.000      0.00           
H+CH2O(+M)<=>CH3O(+M)                    5.400E+11    0.454   2600.00           
     LOW  /  2.200E+30   -4.800   5560.00/                                      
     TROE/  0.7580   94.00  1555.00  4200.00 /                                  
H2/2.00/ H2O/6.00/ CH4/2.00/ CO/1.50/ CO2/2.00/ C2H6/3.00/                      
H+CH2O<=>HCO+H2                          2.300E+10    1.050   3275.00           
H+CH3O<=>OH+CH3                          3.200E+13    0.000      0.00           
H+C2H2(+M)<=>C2H3(+M)                    5.600E+12    0.000   2400.00           
     LOW  /  3.800E+40   -7.270   7220.00/                                      
     TROE/  0.7507   98.50  1302.00  4167.00 /                                  
H2/2.00/ H2O/6.00/ CH4/2.00/ CO/1.50/ CO2/2.00/ C2H6/3.00/ AR/0.70/             
H+C2H3(+M)<=>C2H4(+M)                    6.080E+12    0.270    280.00           
     LOW  /  1.400E+30   -3.860   3320.00/                                      
     TROE/  0.7820  207.50  2663.00  6095.00 /                                  
H2/2.00/ H2O/6.00/ CH4/2.00/ CO/1.50/ CO2/2.00/ C2H6/3.00/ AR/0.70/             
H+C2H3<=>H2+C2H2                         3.000E+13    0.000      0.00           
H+C2H4(+M)<=>C2H5(+M)                    1.080E+12    0.454   1820.00           
     LOW  /  1.200E+42   -7.620   6970.00/                                      
     TROE/  0.9753  210.00   984.00  4374.00 /                                  
H2/2.00/ H2O/6.00/ CH4/2.00/ CO/1.50/ CO2/2.00/ C2H6/3.00/ AR/0.70/             
H+C2H4<=>C2H3+H2                         1.325E+06    2.530  12240.00           
H+C2H5(+M)<=>C2H6(+M)                    5.210E+17   -0.990   1580.00           
     LOW  /  1.990E+41   -7.080   6685.00/                                      
     TROE/  0.8422  125.00  2219.00  6882.00 /                                  
H2/2.00/ H2O/6.00/ CH4/2.00/ CO/1.50/ CO2/2.00/ C2H6/3.00/ AR/0.70/             
H+C2H6<=>C2H5+H2                         1.150E+08    1.900   7530.00           
H2+CO(+M)<=>CH2O(+M)                     4.300E+07    1.500  79600.00           
     LOW  /  5.070E+27   -3.420  84350.00/                                      
     TROE/  0.9320  197.00  1540.00 10300.00 /                                  
H2/2.00/ H2O/6.00/ CH4/2.00/ CO/1.50/ CO2/2.00/ C2H6/3.00/ AR/0.70/             
OH+H2<=>H+H2O                            2.160E+08    1.510   3430.00           
2OH(+M)<=>H2O2(+M)                       7.400E+13   -0.370      0.00           
     LOW  /  2.300E+18   -0.900  -1700.00/                                      
     TROE/  0.7346   94.00  1756.00  5182.00 /                                  
H2/2.00/ H2O/6.00/ CH4/2.00/ CO/1.50/ CO2/2.00/ C2H6/3.00/ AR/0.70/             
2OH<=>O+H2O                              3.570E+04    2.400  -2110.00           
OH+HO2<=>O2+H2O                          2.900E+13    0.000   -500.00           
OH+H2O2<=>HO2+H2O                        5.800E+14    0.000   9560.00           
OH+CH2<=>H+CH2O                          2.000E+13    0.000      0.00           
OH+CH2-S <=>H+CH2O                       3.000E+13    0.000      0.00           
OH+CH3<=>CH2+H2O                         5.600E+07    1.600   5420.00           
OH+CH3<=>CH2-S +H2O                      2.501E+13    0.000      0.00           
OH+CH4<=>CH3+H2O                         1.000E+08    1.600   3120.00           
OH+CO<=>H+CO2                            4.760E+07    1.228     70.00           
OH+HCO<=>H2O+CO                          5.000E+13    0.000      0.00           
OH+CH2O<=>HCO+H2O                        3.430E+09    1.180   -447.00           
OH+C2H2<=>CH3+CO                         4.830E-04    4.000  -2000.00           
OH+C2H3<=>H2O+C2H2                       5.000E+12    0.000      0.00           
OH+C2H4<=>C2H3+H2O                       3.600E+06    2.000   2500.00           
OH+C2H6<=>C2H5+H2O                       3.540E+06    2.120    870.00           
2HO2<=>O2+H2O2                           1.300E+11    0.000  -1630.00           
 DUPLICATE                                                                      
2HO2<=>O2+H2O2                           4.200E+14    0.000  12000.00           
 DUPLICATE                                                                      
HO2+CH2<=>OH+CH2O                        2.000E+13    0.000      0.00           
HO2+CH3<=>O2+CH4                         1.000E+12    0.000      0.00           
HO2+CH3<=>OH+CH3O                        2.000E+13    0.000      0.00           
HO2+CO<=>OH+CO2                          1.500E+14    0.000  23600.00           
HO2+CH2O<=>HCO+H2O2                      1.000E+12    0.000   8000.00           
CH2+O2<=>OH+HCO                          1.320E+13    0.000   1500.00           
CH2+H2<=>H+CH3                           5.000E+05    2.000   7230.00           
2CH2<=>H2+C2H2                           3.200E+13    0.000      0.00           
CH2+CH3<=>H+C2H4                         4.000E+13    0.000      0.00           
CH2+CH4<=>2CH3                           2.460E+06    2.000   8270.00           
CH2-S +N2<=>CH2+N2                       1.500E+13    0.000    600.00           
CH2-S +AR<=>CH2+AR                       9.000E+12    0.000    600.00           
CH2-S +O2<=>H+OH+CO                      2.800E+13    0.000      0.00           
CH2-S +O2<=>CO+H2O                       1.200E+13    0.000      0.00           
CH2-S +H2<=>CH3+H                        7.000E+13    0.000      0.00           
CH2-S +H2O<=>CH2+H2O                     3.000E+13    0.000      0.00           
CH2-S +CH3<=>H+C2H4                      1.200E+13    0.000   -570.00           
CH2-S +CH4<=>2CH3                        1.600E+13    0.000   -570.00           
CH2-S +CO<=>CH2+CO                       9.000E+12    0.000      0.00           
CH2-S +CO2<=>CH2+CO2                     7.000E+12    0.000      0.00           
CH2-S +CO2<=>CO+CH2O                     1.400E+13    0.000      0.00           
CH3+O2<=>O+CH3O                          2.675E+13    0.000  28800.00           
CH3+O2<=>OH+CH2O                         3.600E+10    0.000   8940.00           
CH3+H2O2<=>HO2+CH4                       2.450E+04    2.470   5180.00           
2CH3(+M)<=>C2H6(+M)                      2.120E+16   -0.970    620.00           
     LOW  /  1.770E+50   -9.670   6220.00/                                      
     TROE/  0.5325  151.00  1038.00  4970.00 /                                  
H2/2.00/ H2O/6.00/ CH4/2.00/ CO/1.50/ CO2/2.00/ C2H6/3.00/ AR/0.70/             
2CH3<=>H+C2H5                            4.990E+12    0.100  10600.00           
CH3+HCO<=>CH4+CO                         2.648E+13    0.000      0.00           
CH3+CH2O<=>HCO+CH4                       3.320E+03    2.810   5860.00           
CH3+C2H4<=>C2H3+CH4                      2.270E+05    2.000   9200.00           
CH3+C2H6<=>C2H5+CH4                      6.140E+06    1.740  10450.00           
HCO+H2O<=>H+CO+H2O                       2.244E+18   -1.000  17000.00           
HCO+M<=>H+CO+M                           1.870E+17   -1.000  17000.00           
H2/2.00/ H2O/0.00/ CH4/2.00/ CO/1.50/ CO2/2.00/ C2H6/3.00/                      
HCO+O2<=>HO2+CO                          7.600E+12    0.000    400.00           
CH3O+O2<=>HO2+CH2O                       4.280E-13    7.600  -3530.00           
C2H3+O2<=>HCO+CH2O                       3.980E+12    0.000   -240.00           
C2H4(+M)<=>H2+C2H2(+M)                   8.000E+12    0.440  88770.00           
     LOW  /  7.000E+50   -9.310  99860.00/                                      
     TROE/  0.7345  180.00  1035.00  5417.00 /                                  
H2/2.00/ H2O/6.00/ CH4/2.00/ CO/1.50/ CO2/2.00/ C2H6/3.00/ AR/0.70/             
C2H5+O2<=>HO2+C2H4                       8.400E+11    0.000   3875.00     
!====================NOX==============
N+NO<=>N2+O                              3.500E+13     .000     330.00 !NO MECH
N+O2<=>NO+O                              2.650E+12     .000    6400.00
N+OH<=>NO+H                              7.333E+13     .000    1120.00
N2O+O<=>N2+O2                            1.400E+12     .000   10810.00
N2O+O<=>2NO                              2.900E+13     .000   23150.00
N2O+H<=>N2+OH                            4.400E+14     .000   18880.00
N2O+OH<=>N2+HO2                          2.000E+12     .000   21060.00
N2O(+M)<=>N2+O(+M)                       1.300E+11     .000   59620.00
     LOW  /  6.200E+14     .000  56100.00/
H2/2.00/ H2O/6.00/ CH4/2.00/ CO/1.50/ CO2/2.00/
HO2+NO<=>NO2+OH                          2.110E+12     .000    -480.00
NO+O+M<=>NO2+M                           1.060E+20   -1.410        .00
H2/2.00/ H2O/6.00/ CH4/2.00/ CO/1.50/ CO2/2.00/
NO2+O<=>NO+O2                            3.900E+12     .000    -240.00
NO2+H<=>NO+OH                            1.320E+14     .000     360.00      
END                                                                             

