THERMO ALL
   300.000  1000.000  5000.000
F                 121286AA  1               G   200.000  3500.000  1000.000    1
 4.66567070E-03 8.34689376E-04-3.57342602E-07 7.62278292E-11-6.34638407E-15    2
-5.90184310E+02 1.14924163E+00 3.21003958E-01-8.52144439E-04 3.06550944E-06    3
-3.02151792E-09 1.03904285E-12-6.38697777E+02-2.89303440E-01                   4
CO                121287AA  1               G   200.000  3500.000  1000.000    1
 0.00000000E+00 0.00000000E+00 0.00000000E+00 0.00000000E+00 0.00000000E+00    2
 0.00000000E+00 0.00000000E+00 0.00000000E+00 0.00000000E+00 0.00000000E+00    3
 0.00000000E+00 0.00000000E+00 0.00000000E+00 0.00000000E+00                   4
V1                121281AA  1               G   200.000  3500.000  1000.000    1
 0.00000000E+00 0.00000000E+00 0.00000000E+00 0.00000000E+00 0.00000000E+00    2
 0.00000000E+00 0.00000000E+00 0.00000000E+00 0.00000000E+00 0.00000000E+00    3
 0.00000000E+00 0.00000000E+00 0.00000000E+00 0.00000000E+00                   4
V2                121282AA  1               G   200.000  3500.000  1000.000    1
 0.00000000E+00 0.00000000E+00 0.00000000E+00 0.00000000E+00 0.00000000E+00    2
 0.00000000E+00 0.00000000E+00 0.00000000E+00 0.00000000E+00 0.00000000E+00    3
 0.00000000E+00 0.00000000E+00 0.00000000E+00 0.00000000E+00                   4
OX                121282AA  1               G   200.000  3500.000  1000.000    1
 1.02583154E-01 4.63482237E-05-2.36873467E-08 6.54620033E-12-6.77268504E-16    2
-3.40155793E+01 1.70419869E-01 1.18206194E-01-9.36514544E-05 3.07739728E-07    3
-3.02551817E-10 1.01370313E-13-3.32494831E+01 1.14306653E-01                   4
N2                121286N   2               G   300.000  5000.000  1000.000    1
 1.04472859E-01 5.31166085E-05-2.02930026E-08 3.60436006E-12-2.41075735E-16    2
-3.29412960E+01 2.13488116E-01 1.17753539E-01 5.02702421E-05-1.41475937E-07    3
 2.01386301E-10-8.72744472E-14-3.64432700E+01 1.41017227E-01                   4
END

