THERMO
   300.000  1000.000  5000.000
N2                      N   20   00   00   0G   300.00   5000.00  1000.00      1
 1.04472859E-01 5.31167227E-05-2.02931454E-08 3.60434649E-12-2.40956114E-16    2
-3.29413781E+01 0.59810000E+01 1.17753646E-01 5.02702278E-05-1.41475865E-07    3
 2.01386122E-10-8.72743044E-14-3.64432736E+01 0.39500000E+01                   4
Ox                      AA  10   00   00   0G   300.00   5000.00  1000.00      1
 1.15553708E-01 1.91732190E-05-3.93389752E-09 5.54708302E-13-3.56263360E-17    2
-3.85608210E+01 3.18900000E+00 1.00408140E-01 3.52353838E-05-1.79887996E-08    3
 4.10602898E-11-2.74029026E-14-3.14136780E+01 6.03500000E+00                   4
F                       AA  10   00    0   0G   300.000  5000.000 1000.00      1
 1.60678956E-01 4.08677076E-04-1.52106940E-07 2.59885466E-11-1.67498876E-15    2
-2.63051453E+02-8.60062792E+01-3.02441696E-02 9.35048094E-04-7.87525584E-07    3
 4.75752116E-10-1.51519674E-13-2.05979550E+02 5.08799136E+01                   4
P1                      AA  10   00    0   0G   300.000  5000.000 1000.00      1
 1.10756110E-01 1.27189219E-04-4.78006613E-08 8.40061760E-12-5.60278417E-16    2
-1.82421641E+03 0.00000000E+00 1.10756110E-01 1.27189219E-04-4.78006613E-08    3
 8.40061760E-12-5.60278417E-16-1.82421641E+03 0.00000000E+00                   4
P2                      AA  10   00    0   0G   300.000  5000.000 1000.00      1
 9.25655223E-02 1.23247756E-04-4.19149405E-08 6.77625321E-12-4.21070279E-16    2
-6.30286287E+02 0.00000000E+00 9.25655223E-02 1.23247756E-04-4.19149405E-08    3
 6.77625321E-12-4.21070279E-16-6.30286287E+02 0.00000000E+00                   4
P3                      AA  10   00    0   0G   300.000  5000.000 1000.00      1
 2.21251282E-01 7.93874945E-06-3.66515919E-09 1.25083291E-12-1.15191418E-16    2
-1.06944010E+03 0.00000000E+00 2.21251282E-01 7.93874945E-06-3.66515919E-09    3
 1.25083291E-12-1.15191418E-16-1.06944010E+03 0.00000000E+00                   4
P4                      AA  10   00    0   0G   300.000  5000.000 1000.00      1
 8.60325666E-02 1.15355916E-05 1.15716351E-08-3.99874654E-12 3.56497774E-16    2
-7.02877041E+02 0.00000000E+00 8.60325666E-02 1.15355916E-05 1.15716351E-08    3
-3.99874654E-12 3.56497774E-16-7.02877041E+02 0.00000000E+00                   4
I                       AA  10   00    0   0G   300.000  5000.000 1000.00      1
 1.03801501E-01 9.79425957E-05 1.17439688E-08 1.89703216E-12 4.74760128E-16    2
-1.10775274E+03 0.00000000E+00 1.03801501E-01 9.79425957E-05 1.17439688E-08    3
 1.89703216E-12 4.74760128E-16-1.10775274E+03 0.00000000E+00                   4
END