"""
M. Mehl, H. J. Curran, W. J. Pitz, and C. K. Westbrook, 2009
 ic8_ver3_mech.txt
 from Marco Mehl 2009-12-11
This version include the latest version of IC5 by H. J. Curran
Website version
LLNL-MI-421507
Review and release date: December 16, 2009



"""

units(length='cm', time='s', quantity='mol', act_energy='cal/mol')

ideal_gas(name='gas',
          elements="C H N O Ar He",
          species="""H               H2              O
                     O2              OH              H2O
                     N2              HO2             H2O2
                     AR              CO              CO2
                     CH2O            HCO             HO2CHO
                     O2CHO           HOCHO           OCHO
                     HOCH2O2H        HOCH2O2         OCH2O2H
                     HOCH2O          CH3OH           CH2OH
                     CH3O            CH3O2H          CH3O2
                     CH4             CH3             CH2
                     CH2(S)          C               CH
                     C2H6            C2H5            C2H4
                     C2H3            C2H2            C2H
                     CH3CHO          CH3CO           CH2CHO
                     CH2CO           HCCO            HCCOH
                     CH3CO3H         CH3CO3          CH3CO2
                     C2H5OH          C2H5O           PC2H4OH
                     SC2H4OH         O2C2H4OH        C2H5O2H
                     C2H5O2          C2H4O2H         C2H4O1-2
                     C2H3O1-2        CH3COCH3        CH3COCH2
                     CH3COCH2O2      CH3COCH2O2H     CH3COCH2O
                     C2H3CHO         C2H3CO          C2H5CHO
                     C2H5CO          CH3OCH3         CH3OCH2
                     CH3OCH2O2       CH2OCH2O2H      CH3OCH2O2H
                     CH3OCH2O        O2CH2OCH2O2H    HO2CH2OCHO
                     OCH2OCHO        HOCH2OCO        CH3OCHO
                     CH3OCO          CH2OCHO         HE
                     C3H8            IC3H7           NC3H7
                     C3H6            C3H5-A          C3H5-S
                     C3H5-T          C3H4-P          C3H4-A
                     C3H3            C3H2            C3H5O
                     C3H6OOH1-2      C3H6OOH1-3      C3H6OOH2-1
                     C3H6OOH1-2O2    C3H6OOH1-3O2    C3H6OOH2-1O2
                     C3H6OOH2-2      NC3H7O2H        IC3H7O2H
                     NC3H7O2         IC3H7O2         NC3H7O
                     IC3H7O          C3H6O1-2        C3H6O1-3
                     C3KET12         C3KET13         C3KET21
                     C3H51-2,3OOH    C3H52-1,3OOH    C3H6OH
                     HOC3H6O2        CH3CHCO         AC3H5OOH
                     C2H3OOH         C4H10           C4H8-1
                     C4H8-2          PC4H9           SC4H9
                     C4H71-1         C4H71-2         C4H71-3
                     C4H71-4         C4H72-2         C4H6
                     PC4H9O2H        SC4H9O2H        PC4H9O2
                     SC4H9O2         PC4H9O          SC4H9O
                     C4H7O           C4H8O1-2        C4H8O1-3
                     C4H8O1-4        C4H8O2-3        PC4H8OH
                     SC4H8OH         C4H8OH-1O2      C4H8OH-2O2
                     C4H8OOH1-1      C4H8OOH1-2      C4H8OOH1-3
                     C4H8OOH1-4      C4H8OOH2-1      C4H8OOH2-2
                     C4H8OOH2-3      C4H8OOH2-4      C4H8OOH1-2O2
                     C4H8OOH1-3O2    C4H8OOH1-4O2    C4H8OOH2-1O2
                     C4H8OOH2-3O2    C4H8OOH2-4O2    NC4KET12
                     NC4KET13        NC4KET14        NC4KET21
                     NC4KET23        NC4KET24        C2H5COCH3
                     C2H5COCH2       CH2CH2COCH3     CH3CHCOCH3
                     C2H3COCH3       CH3CHOOCOCH3    CH2CHOOHCOCH3
                     NC3H7CHO        NC3H7CO         C3H6CHO-1
                     C3H6CHO-2       C3H6CHO-3       C2H5CHCO
                     SC3H5CHO        SC3H5CO         CH2CH2CHO
                     IC4H10          IC4H9           TC4H9
                     IC4H8           IC4H7           TC4H9O2
                     IC4H9O2         TC4H8O2H-I      IC4H8O2H-I
                     IC4H8O2H-T      IC4H8O          CC4H8O
                     IC4H9O          TC4H9O          IC4H9O2H
                     TC4H9O2H        IC4H7O          IC4H8OH
                     IO2C4H8OH       IC3H7CHO        TC3H6CHO
                     IC3H7CO         IC3H6CHO        TC4H8OOH-IO2
                     IC4H8OOH-IO2    IC4H8OOH-TO2    IC4KETII
                     IC4KETIT        IC4H7OH         IC4H6OH
                     IC3H5CHO        IC3H5CO         TC3H6OCHO
                     IC3H6CO         IC4H7OOH        TC3H6OHCHO
                     TC3H6OH         IC3H5OH         TC3H6O2CHO
                     TC3H6O2HCO      IC3H5O2HCHO     CH2CCH2OH
                     TC4H8CHO        O2C4H8CHO       O2HC4H8CO
                     C3H5OH          TIC4H7Q2-I      IIC4H7Q2-T
                     IIC4H7Q2-I      CH2O2H          IC5H12
                     AC5H11          BC5H11          CC5H11
                     DC5H11          AC5H10          BC5H10
                     CC5H10          AC5H9-A2        AC5H9-C
                     AC5H9-D         CC5H9-A         CC5H9-B
                     AC5H9O-A2       AC5H9O-C        CC5H9O-B
                     AC5H11O2H       BC5H11O2H       CC5H11O2H
                     DC5H11O2H       AC5H11O2        BC5H11O2
                     CC5H11O2        DC5H11O2        AC5H11O
                     BC5H11O         CC5H11O         DC5H11O
                     AC5H10OOH-A     AC5H10OOH-B     AC5H10OOH-C
                     AC5H10OOH-D     BC5H10OOH-A     BC5H10OOH-C
                     BC5H10OOH-D     CC5H10OOH-A     CC5H10OOH-B
                     CC5H10OOH-D     DC5H10OOH-A     DC5H10OOH-B
                     DC5H10OOH-C     A-AC5H10O       A-BC5H10O
                     A-CC5H10O       A-DC5H10O       B-CC5H10O
                     B-DC5H10O       C-DC5H10O       AC5H10OOH-AO2
                     AC5H10OOH-BO2   AC5H10OOH-CO2   AC5H10OOH-DO2
                     BC5H10OOH-AO2   BC5H10OOH-CO2   BC5H10OOH-DO2
                     CC5H10OOH-AO2   CC5H10OOH-BO2   CC5H10OOH-DO2
                     DC5H10OOH-AO2   DC5H10OOH-BO2   DC5H10OOH-CO2
                     IC5KETAA        IC5KETAB        IC5KETAC
                     IC5KETAD        IC5KETCA        IC5KETCB
                     IC5KETCD        IC5KETDA        IC5KETDB
                     IC5KETDC        AC5H10OH        BC5H10OH
                     CC5H10OH        AO2C5H10OH      BO2C5H10OH
                     CO2C5H10OH      CH3CHCHO        IC3H5COCH3
                     IC3H5COCH2      AC3H4COCH3      IC6H14
                     AC6H13          BC6H13          CC6H13
                     DC6H13          EC6H13          AC6H12
                     BC6H12          CC6H12          DC6H12
                     AC6H11-A2       AC6H11-C        AC6H11-D
                     AC6H11-E        BC6H11-E        CC6H11-A
                     CC6H11-B        DC6H11-A        DC6H11-B
                     DC6H11-C        AC6H11O-C       CC6H11O-B
                     DC6H11O-C       AC6H13O2        BC6H13O2
                     CC6H13O2        DC6H13O2        EC6H13O2
                     AC6H13O2H       BC6H13O2H       CC6H13O2H
                     DC6H13O2H       EC6H13O2H       AC6H13O
                     BC6H13O         CC6H13O         DC6H13O
                     EC6H13O         AC6H12OOH-A     AC6H12OOH-B
                     AC6H12OOH-C     AC6H12OOH-D     AC6H12OOH-E
                     BC6H12OOH-A     BC6H12OOH-C     BC6H12OOH-D
                     BC6H12OOH-E     CC6H12OOH-A     CC6H12OOH-B
                     CC6H12OOH-D     CC6H12OOH-E     DC6H12OOH-A
                     DC6H12OOH-B     DC6H12OOH-C     DC6H12OOH-E
                     EC6H12OOH-A     EC6H12OOH-B     EC6H12OOH-C
                     EC6H12OOH-D     A-AC6H12O       A-BC6H12O
                     A-CC6H12O       A-DC6H12O       A-EC6H12O
                     B-CC6H12O       B-DC6H12O       B-EC6H12O
                     C-DC6H12O       C-EC6H12O       D-EC6H12O
                     AC6H12OOH-AO2   AC6H12OOH-BO2   AC6H12OOH-CO2
                     AC6H12OOH-DO2   AC6H12OOH-EO2   BC6H12OOH-AO2
                     BC6H12OOH-CO2   BC6H12OOH-DO2   BC6H12OOH-EO2
                     CC6H12OOH-AO2   CC6H12OOH-BO2   CC6H12OOH-DO2
                     CC6H12OOH-EO2   DC6H12OOH-AO2   DC6H12OOH-BO2
                     DC6H12OOH-CO2   DC6H12OOH-EO2   EC6H12OOH-AO2
                     EC6H12OOH-BO2   EC6H12OOH-CO2   EC6H12OOH-DO2
                     IC6KETAA        IC6KETAB        IC6KETAC
                     IC6KETAD        IC6KETAE        IC6KETCA
                     IC6KETCB        IC6KETCD        IC6KETCE
                     IC6KETDA        IC6KETDB        IC6KETDC
                     IC6KETDE        IC6KETEA        IC6KETEB
                     IC6KETEC        IC6KETED        AC6H12OH
                     BC6H12OH        CC6H12OH        DC6H12OH
                     AO2C6H12OH      BO2C6H12OH      CO2C6H12OH
                     DO2C6H12OH      NC4H9CHO-2      NC4H9CO-2
                     C4H8CHO1-2      C4H8CHO2-2      C4H8CHO3-2
                     C4H8CHO4-2      IC4H9CHO        IC4H9CO
                     IC3H6CH2CHO     TC3H6CH2CHO     IC3H7CHCHO
                     IC5H11CHO       IC5H11CO        AC5H10CHO
                     BC5H10CHO       CC5H10CHO       DC5H10CHO
                     C4H7CHO1-4      C4H7CO1-4       C4H6CHO1-43
                     C4H6CHO1-44     C4H7CHO2-1      C4H7CO2-1
                     C4H6CHO2-11     NC5H11CHO-2     NC5H11CO-2
                     C5H10CHO1-2     C5H10CHO2-2     C5H10CHO3-2
                     C5H10CHO4-2     C5H10CHO5-2     IC4H9COCH3
                     IC4H9COCH2      IC3H6CH2COCH3   IC3H7CHCOCH3
                     TC3H6CH2COCH3   NC3H7COCH3      NC3H7COCH2
                     C3H6COCH3-1     C3H6COCH3-2     C3H6COCH3-3
                     AC3H5CHO        AC3H5CO         C2H3CHCHO
                     C5H10-1         C5H10-2         C5H91-3
                     C5H91-4         C5H91-5         C5H92-4
                     C5H92-5         C5H9O1-3        C5H9O2-4
                     C5H11-2         NC4H9CHO        NC4H9CO
                     C4H8CHO-1       C4H8CHO-2       C4H8CHO-3
                     C4H8CHO-4       IC3H7COC2H5     IC3H6COC2H5
                     TC3H6COC2H5     IC3H7COC2H4P    IC3H7COC2H4S
                     IC3H5COC2H5     AC3H4COC2H5     IC3H5COC2H4P
                     IC3H5COC2H4S    IC3H7COCH3      IC3H7COCH2
                     IC3H6COCH3      TC3H6COCH3      C2H5COC2H5
                     C2H5COC2H4P     C2H5COC2H4S     C2H5COC2H3
                     PC2H4COC2H3     SC2H4COC2H3     C5H91-2
                     IC5H8           IC5H7           IC5H7O
                     C4H5            IC4H7-I1        C5H81-3
                     C7H16-24        XC7H15          YC7H15
                     ZC7H15          XC7H14          YC7H14
                     XC7H13-X1       XC7H13-Z        XC7H13-X2
                     XC7H13-Y2       YC7H13-Y2       YC7H13-X2
                     XC7H13O-Z       YC7H13O-Y2      XC7H15O2
                     YC7H15O2        ZC7H15O2        XC7H15O2H
                     YC7H15O2H       ZC7H15O2H       XC7H15O
                     YC7H15O         ZC7H15O         XC7H14OOH-X1
                     XC7H14OOH-Y1    XC7H14OOH-Z     XC7H14OOH-Y2
                     XC7H14OOH-X2    YC7H14OOH-X1    YC7H14OOH-Z
                     YC7H14OOH-Y2    YC7H14OOH-X2    ZC7H14OOH-X
                     ZC7H14OOH-Y     XC7H14OOH-X1O2  XC7H14OOH-X2O2
                     XC7H14OOH-Y1O2  XC7H14OOH-Y2O2  XC7H14OOH-ZO2
                     YC7H14OOH-X1O2  YC7H14OOH-X2O2  YC7H14OOH-Y2O2
                     YC7H14OOH-ZO2   ZC7H14OOH-XO2   ZC7H14OOH-YO2
                     X-X1C7H14O      X-X2C7H14O      X-Y1C7H14O
                     X-Y2C7H14O      X-ZC7H14O       Y-YC7H14O
                     Y-ZC7H14O       C7KET24XX1      C7KET24XY1
                     C7KET24XZ       C7KET24XY2      C7KET24XX2
                     C7KET24ZX       C7KET24ZY       XC7H14OH
                     YC7H14OH        XO2C7H14OH      YO2C7H14OH
                     ACC6H10         ACC6H9-A        ACC6H9-D
                     NEOC5H12        NEOC5H11        NEOC5H11O2H
                     NEOC5H11O2      NEOC5H11O       NEOC5H10OOH
                     NEO-C5H10O      NEOC5H10OOH-O2  NEOC5H9Q2
                     NEOC5H9Q2-N     NEOC5KET        NEOC5KETOX
                     NEOC5KEJOL      IC4H6Q2-II      NEOC6H14
                     FC6H13          GC6H13          HC6H13
                     NEOC6H12        NEOC6H11        FC6H13O2
                     GC6H13O2        HC6H13O2        FC6H13O2H
                     GC6H13O2H       HC6H13O2H       FC6H13O
                     GC6H13O         HC6H13O         FC6H12OOH-F
                     FC6H12OOH-G     FC6H12OOH-H     GC6H12OOH-F
                     GC6H12OOH-H     HC6H12OOH-F     HC6H12OOH-G
                     FC6H12OOH-FO2   FC6H12OOH-GO2   FC6H12OOH-HO2
                     GC6H12OOH-FO2   GC6H12OOH-HO2   HC6H12OOH-FO2
                     HC6H12OOH-GO2   F-FC6H12O       F-GC6H12O
                     F-HC6H12O       G-HC6H12O       NEOC6KETFF
                     NEOC6KETFG      NEOC6KETFH      NEOC6KETGF
                     NEOC6KETGH      NEOC6KETHF      NEOC6KETHG
                     NEOC6H12OH      NEOO2C6H12OH    TC4H9CHO
                     TC4H9CO         NEOC5H11CHO     NEOC5H11CO
                     TC4H9CHCHO      TC4H8CH2CHO     IC4H7CHO
                     IC4H7CO         AC3H4CH2CHO     IC3H5CHCHO
                     IC5H11CHO-B     IC5H11CO-B      IC5H10CHO-BA
                     IC5H10CHO-BC    IC5H10CHO-BD    C4H7CHO1-2
                     C4H7CO1-2       C4H6CHO1-23     C4H6CHO1-24
                     C4H7CHO2-2      C4H7CO2-2       C4H6CHO2-21
                     C4H6CHO2-24     CH2CCHCH3       TC4H9COCH3
                     TC4H9COCH2      TC4H8COCH3      CH2CCHO
                     IC3H6CHCHO      IC3H6CHCO       AC3H5CHCHO
                     AC5H9-A1        CH3CHOCHO       NEOC7H16
                     NC7H15          OC7H15          PC7H15
                     QC7H15          OC7H14          PC7H14
                     OC7H13-N        PC7H13-N        PC7H13-O
                     PC7H13O-O       NC7H15O2        OC7H15O2
                     PC7H15O2        QC7H15O2        NC7H15O2H
                     OC7H15O2H       PC7H15O2H       QC7H15O2H
                     NC7H15O         OC7H15O         PC7H15O
                     QC7H15O         NC7H14OOH-N2    NC7H14OOH-Q
                     QC7H14OOH-N     NC7H14OOH-O     NC7H14OOH-P
                     QC7H14OOH-O     QC7H14OOH-P     OC7H14OOH-N
                     OC7H14OOH-Q     PC7H14OOH-N     PC7H14OOH-Q
                     OC7H14OOH-P     PC7H14OOH-O     NC7H14OOH-N2O2
                     NC7H14OOH-QO2   QC7H14OOH-NO2   NC7H14OOH-OO2
                     NC7H14OOH-PO2   QC7H14OOH-OO2   QC7H14OOH-PO2
                     OC7H14OOH-NO2   OC7H14OOH-QO2   PC7H14OOH-NO2
                     PC7H14OOH-QO2   OC7H14OOH-PO2   PC7H14OOH-OO2
                     N-NC7H14O       N-OC7H14O       N-PC7H14O
                     N-QC7H14O       O-PC7H14O       O-QC7H14O
                     P-QC7H14O       NEOC7KETNN      NEOC7KETNO
                     NEOC7KETNP      NEOC7KETNQ      NEOC7KETON
                     NEOC7KETOP      NEOC7KETOQ      NEOC7KETPN
                     NEOC7KETPO      NEOC7KETPQ      NEOC7KETQN
                     NEOC7KETQO      NEOC7KETQP      OC7H14OH
                     PC7H14OH        OO2C7H14OH      PO2C7H14OH
                     IC8H18          AC8H17          BC8H17
                     CC8H17          DC8H17          IC8H16
                     JC8H16          IC8H14          IC8H15
                     AC8H17O2        BC8H17O2        CC8H17O2
                     DC8H17O2        AC8H17O2H       BC8H17O2H
                     CC8H17O2H       DC8H17O2H       AC8H17O
                     BC8H17O         CC8H17O         DC8H17O
                     AC8H16OOH-A     AC8H16OOH-B     AC8H16OOH-C
                     AC8H16OOH-D     BC8H16OOH-C     BC8H16OOH-A
                     BC8H16OOH-D     CC8H16OOH-D     CC8H16OOH-B
                     CC8H16OOH-A     DC8H16OOH-C     DC8H16OOH-D
                     DC8H16OOH-B     DC8H16OOH-A     IC8ETERAA
                     IC8ETERAB       IC8ETERAC       IC8ETERAD
                     IC8ETERBC       IC8ETERBD       IC8ETERCD
                     IC8ETERDD       AC8H16OOH-AO2   AC8H16OOH-BO2
                     AC8H16OOH-CO2   AC8H16OOH-DO2   BC8H16OOH-CO2
                     BC8H16OOH-AO2   BC8H16OOH-DO2   CC8H16OOH-DO2
                     CC8H16OOH-BO2   CC8H16OOH-AO2   DC8H16OOH-CO2
                     DC8H16OOH-DO2   DC8H16OOH-BO2   DC8H16OOH-AO2
                     IC8KETAA        IC8KETAB        IC8KETAC
                     IC8KETAD        IC8KETBA        IC8KETBC
                     IC8KETBD        IC8KETDA        IC8KETDB
                     IC8KETDC        IC8KETDD        CC8H16OH-B
                     BC8H16OH-C      CC8H16OH-BO2    CC8H16O-BO2H
                     CC8H16OH-D      DC8H16OH-C      BC8H16OH-CO2
                     BC8H16O-CO2H    CC8H16OH-DO2    CC8H16O-DO2H
                     DC8H16OH-CO2    DC8H16O-CO2H    IC6H13CHO-B
                     IC6H13CO-B      AC6H12CHO-B     CC6H12CHO-B
                     DC6H12CHO-B     EC6H12CHO-B     IC6H13CHO-D
                     IC6H13CO-D      AC6H12CHO-D     BC6H12CHO-D
                     CC6H12CHO-D     DC6H12CHO-D     EC6H12CHO-D
                     IC3H7COC3H7-I   IC3H7COC3H6-I   IC3H7COC3H6-T
                     TC4H9COC2H5     TC4H8COC2H5     TC4H9COC2H4S
                     TC4H9COC2H4P    NEOC5H11COCH3   NEOC5H10COCH3
                     TC4H9CHCOCH3    NEOC5H11COCH2   NEOC6H13CHO
                     NEOC6H13CO      FC6H12CHO       GC6H12CHO
                     HC6H12CHO       IC4H7COCH3      IC4H7COCH2
                     IC3H5CHCOCH3    AC3H4CH2COCH3   XC7H13OOH-X1
                     XC7H13O-X1      YC7H13OOH-X1    YC7H13O-X1
                     OC7H13OOH-N     OC7H13O-N       XC7H13OOH-Z
                     PC7H13OOH-O     OC7H13OOH-Q     OC7H13O-Q
                     NEOC6H11-H      XC7H13OOH-Y2    XC7H13O-Y2
                     YC7H13OOH-X2    YC7H13O-X2      CC6H11-D
                     DC6H11-D        IC3H6CHCOCH3    AC3H5CHCOCH3
                     IC3H6CHCOCH2""",
          reactions='all',
          initial_state=state(temperature=300.0, pressure=OneAtm))

#-------------------------------------------------------------------------------
# Species data
#-------------------------------------------------------------------------------

species(name='H',
        atoms='H:1',
        thermo=(NASA([300.00, 1000.00],
                     [ 2.50000000E+00,  0.00000000E+00,  0.00000000E+00,
                       0.00000000E+00,  0.00000000E+00,  2.54716300E+04,
                      -4.60117600E-01]),
                NASA([1000.00, 5000.00],
                     [ 2.50000000E+00,  0.00000000E+00,  0.00000000E+00,
                       0.00000000E+00,  0.00000000E+00,  2.54716300E+04,
                      -4.60117600E-01])),
        note='120186')

species(name='H2',
        atoms='H:2',
        thermo=(NASA([300.00, 1000.00],
                     [ 3.29812400E+00,  8.24944200E-04, -8.14301500E-07,
                      -9.47543400E-11,  4.13487200E-13, -1.01252100E+03,
                      -3.29409400E+00]),
                NASA([1000.00, 5000.00],
                     [ 2.99142300E+00,  7.00064400E-04, -5.63382900E-08,
                      -9.23157800E-12,  1.58275200E-15, -8.35034000E+02,
                      -1.35511000E+00])),
        note='121286')

species(name='O',
        atoms='O:1',
        thermo=(NASA([300.00, 1000.00],
                     [ 2.94642900E+00, -1.63816600E-03,  2.42103200E-06,
                      -1.60284300E-09,  3.89069600E-13,  2.91476400E+04,
                       2.96399500E+00]),
                NASA([1000.00, 5000.00],
                     [ 2.54206000E+00, -2.75506200E-05, -3.10280300E-09,
                       4.55106700E-12, -4.36805200E-16,  2.92308000E+04,
                       4.92030800E+00])),
        note='120186')

species(name='O2',
        atoms='O:2',
        thermo=(NASA([300.00, 1000.00],
                     [ 3.21293600E+00,  1.12748600E-03, -5.75615000E-07,
                       1.31387700E-09, -8.76855400E-13, -1.00524900E+03,
                       6.03473800E+00]),
                NASA([1000.00, 5000.00],
                     [ 3.69757800E+00,  6.13519700E-04, -1.25884200E-07,
                       1.77528100E-11, -1.13643500E-15, -1.23393000E+03,
                       3.18916600E+00])),
        note='121386')

species(name='OH',
        atoms='H:1 O:1',
        thermo=(NASA([300.00, 1710.00],
                     [ 3.41896226E+00,  3.19255801E-04, -3.08292717E-07,
                       3.64407494E-10, -1.00195479E-13,  3.45264448E+03,
                       2.54433372E+00]),
                NASA([1710.00, 5000.00],
                     [ 2.85376040E+00,  1.02994334E-03, -2.32666477E-07,
                       1.93750704E-11, -3.15759847E-16,  3.69949720E+03,
                       5.78756825E+00])),
        note='7/13/0RUCIC')

species(name='H2O',
        atoms='H:2 O:1',
        thermo=(NASA([300.00, 1000.00],
                     [ 3.38684200E+00,  3.47498200E-03, -6.35469600E-06,
                       6.96858100E-09, -2.50658800E-12, -3.02081100E+04,
                       2.59023300E+00]),
                NASA([1000.00, 5000.00],
                     [ 2.67214600E+00,  3.05629300E-03, -8.73026000E-07,
                       1.20099600E-10, -6.39161800E-15, -2.98992100E+04,
                       6.86281700E+00])),
        note='20387')

species(name='N2',
        atoms='N:2',
        thermo=(NASA([300.00, 1000.00],
                     [ 3.29867700E+00,  1.40824000E-03, -3.96322200E-06,
                       5.64151500E-09, -2.44485500E-12, -1.02090000E+03,
                       3.95037200E+00]),
                NASA([1000.00, 5000.00],
                     [ 2.92664000E+00,  1.48797700E-03, -5.68476100E-07,
                       1.00970400E-10, -6.75335100E-15, -9.22797700E+02,
                       5.98052800E+00])),
        note='121286')

species(name='HO2',
        atoms='H:1 O:2',
        thermo=(NASA([200.00, 1000.00],
                     [ 4.30179801E+00, -4.74912051E-03,  2.11582891E-05,
                      -2.42763894E-08,  9.29225124E-12,  2.94808040E+02,
                       3.71666245E+00]),
                NASA([1000.00, 3500.00],
                     [ 4.01721090E+00,  2.23982013E-03, -6.33658150E-07,
                       1.14246370E-10, -1.07908535E-14,  1.11856713E+02,
                       3.78510215E+00])),
        note='L5/89')

species(name='H2O2',
        atoms='H:2 O:2',
        thermo=(NASA([300.00, 1000.00],
                     [ 3.38875400E+00,  6.56922600E-03, -1.48501300E-07,
                      -4.62580600E-09,  2.47151500E-12, -1.76631500E+04,
                       6.78536300E+00]),
                NASA([1000.00, 5000.00],
                     [ 4.57316700E+00,  4.33613600E-03, -1.47468900E-06,
                       2.34890400E-10, -1.43165400E-14, -1.80069600E+04,
                       5.01137000E-01])),
        note='120186')

species(name='AR',
        atoms='Ar:1',
        thermo=(NASA([300.00, 1000.00],
                     [ 2.50000000E+00,  0.00000000E+00,  0.00000000E+00,
                       0.00000000E+00,  0.00000000E+00, -7.45375000E+02,
                       4.36600100E+00]),
                NASA([1000.00, 5000.00],
                     [ 2.50000000E+00,  0.00000000E+00,  0.00000000E+00,
                       0.00000000E+00,  0.00000000E+00, -7.45375000E+02,
                       4.36600100E+00])),
        note='120186')

species(name='CO',
        atoms='C:1 O:1',
        thermo=(NASA([300.00, 1429.00],
                     [ 3.19036352E+00,  8.94419972E-04, -3.24927563E-08,
                      -1.04599967E-10,  2.41965693E-14, -1.42869054E+04,
                       5.33277914E+00]),
                NASA([1429.00, 5000.00],
                     [ 3.11216890E+00,  1.15948283E-03, -3.38480362E-07,
                       4.41403098E-11, -2.12862228E-15, -1.42718539E+04,
                       5.71725177E+00])),
        note='29/11/04')

species(name='CO2',
        atoms='C:1 O:2',
        thermo=(NASA([300.00, 1380.00],
                     [ 2.57930490E+00,  8.24684987E-03, -6.42716047E-06,
                       2.54637024E-09, -4.12030443E-13, -4.84162830E+04,
                       8.81141041E+00]),
                NASA([1380.00, 5000.00],
                     [ 5.18953018E+00,  2.06006476E-03, -7.33575324E-07,
                       1.17004374E-10, -6.91729215E-15, -4.93178953E+04,
                      -5.18289303E+00])),
        note='29/11/04')

species(name='CH2O',
        atoms='C:1 H:2 O:1',
        thermo=(NASA([300.00, 1486.00],
                     [ 3.00754197E+00,  3.04729496E-03,  5.25109246E-06,
                      -5.12019281E-09,  1.27133795E-12, -1.41188397E+04,
                       8.10120233E+00]),
                NASA([1486.00, 5000.00],
                     [ 4.02068394E+00,  5.09903417E-03, -1.76430480E-06,
                       2.76025879E-10, -1.60998042E-14, -1.49287258E+04,
                       1.06525547E+00])),
        note='6/29/04RUSCI')

species(name='HCO',
        atoms='H:1 C:1 O:1',
        thermo=(NASA([300.00, 1690.00],
                     [ 3.81049965E+00,  8.13269825E-04,  3.13164701E-06,
                      -2.39478268E-09,  5.06894554E-13,  4.03859901E+03,
                       4.94843165E+00]),
                NASA([1690.00, 5000.00],
                     [ 3.44148164E+00,  3.52157719E-03, -1.24136118E-06,
                       1.97328644E-10, -1.16538616E-14,  3.97409684E+03,
                       6.24593456E+00])),
        note='29/11/04')

species(name='HO2CHO',
        atoms='C:1 H:2 O:3',
        thermo=(NASA([300.00, 1378.00],
                     [ 2.42464726E+00,  2.19706380E-02, -1.68705546E-05,
                       6.25612194E-09, -9.11645843E-13, -3.54828006E+04,
                       1.75027796E+01]),
                NASA([1378.00, 5000.00],
                     [ 9.87503878E+00,  4.64663708E-03, -1.67230522E-06,
                       2.68624413E-10, -1.59595232E-14, -3.80502496E+04,
                      -2.24939155E+01])),
        note='6/26/95THERM')

species(name='O2CHO',
        atoms='C:1 H:1 O:3',
        thermo=(NASA([300.00, 1368.00],
                     [ 3.96059309E+00,  1.06002279E-02, -5.25713351E-06,
                       1.01716726E-09, -2.87487602E-14, -1.73599383E+04,
                       1.17807483E+01]),
                NASA([1368.00, 5000.00],
                     [ 7.24075139E+00,  4.63312951E-03, -1.63693995E-06,
                       2.59706693E-10, -1.52964699E-14, -1.87027618E+04,
                      -6.49547212E+00])),
        note='6/26/95THERM')

species(name='HOCHO',
        atoms='C:1 H:2 O:2',
        thermo=(NASA([300.00, 1419.00],
                     [ 1.28069021E+00,  1.52887758E-02, -5.64150476E-06,
                      -1.22968799E-09,  8.14273233E-13, -4.64347524E+04,
                       1.83142081E+01]),
                NASA([1419.00, 5000.00],
                     [ 7.67134440E+00,  4.43426373E-03, -1.60867436E-06,
                       2.59770020E-10, -1.54899704E-14, -4.89708660E+04,
                      -1.73024418E+01])),
        note='9/27/5THERM')

species(name='OCHO',
        atoms='C:1 H:1 O:2',
        thermo=(NASA([300.00, 1412.00],
                     [ 1.42991854E+00,  1.22803284E-02, -5.28461096E-06,
                      -3.73026551E-10,  5.07953571E-13, -1.62042814E+04,
                       1.80411779E+01]),
                NASA([1412.00, 5000.00],
                     [ 6.49815560E+00,  3.22319012E-03, -1.17099595E-06,
                       1.89272918E-10, -1.12937000E-14, -1.81679042E+04,
                      -1.00412613E+01])),
        note='9/27/5THERM')

species(name='HOCH2O2H',
        atoms='C:1 H:4 O:3',
        thermo=(NASA([300.00, 1422.00],
                     [ 1.85716693E+00,  3.23153132E-02, -2.69928902E-05,
                       1.11694484E-08, -1.81284103E-12, -4.00314471E+04,
                       1.90917729E+01]),
                NASA([1422.00, 5000.00],
                     [ 1.16303827E+01,  7.15133688E-03, -2.39035030E-06,
                       3.65772791E-10, -2.10199524E-14, -4.31079242E+04,
                      -3.24276725E+01])),
        note='4/9/98THERM')

species(name='HOCH2O2',
        atoms='C:1 H:3 O:3',
        thermo=(NASA([300.00, 1412.00],
                     [ 2.85441621E+00,  2.33663535E-02, -1.88115990E-05,
                       7.96709515E-09, -1.36346618E-12, -2.29866196E+04,
                       1.51730565E+01]),
                NASA([1412.00, 5000.00],
                     [ 9.04545938E+00,  7.15223373E-03, -2.37005676E-06,
                       3.60083481E-10, -2.05750228E-14, -2.49414886E+04,
                      -1.74210530E+01])),
        note='4/9/98THERM')

species(name='OCH2O2H',
        atoms='C:1 H:3 O:3',
        thermo=(NASA([300.00, 1420.00],
                     [ 1.93823075E+00,  3.01465730E-02, -2.61053152E-05,
                       1.09463562E-08, -1.78312692E-12, -1.38166625E+04,
                       1.85042002E+01]),
                NASA([1420.00, 5000.00],