ELEMENTS
O  H  C N
END
SPECIES
CH4  H2  O2  O  H  OH  HO2  H2O2  H2O  CO  CH3  CH2O  HCO  CH3O  CO2 N2
END
REACTIONS
H+O2=>O+OH                      2.E+14            0.00            16800.
O+OH=>O2+H                      1.575E+13         0.00              690.
O+H2=>OH+H                      1.8E+10           1.00             8826.
OH+H=>O+H2                      8.E+09            1.00             6760.
H2+OH=>H2O+H                    1.17E+09          1.30             3626.
H2O+H=>H2+OH                    5.09E+09          1.30            18588.
OH+OH=>H2O+O                    6.E+08            1.30                0.
H2O+O=>OH+OH                    5.9E+09           1.30            17029.
H+O2+M=>HO2+M                   2.3E+18         -0.80                 0.
CH4/6.5/  H2O/6.5/ CO2/1.5/ CO/0.75/ O2/0.4/ N2/0.4/
H+HO2=>OH+OH                    1.5E+14           0.00             1004.
H+HO2=>H2+O2                    2.5E+13           0.00              700.
OH+HO2=>H2O+O2                  2.E+13            0.00             1000.
CO+OH=>CO2+H                    1.51E+07          1.30             -758.
CO2+H=>CO+OH                    1.57E+09          1.30            22337.
CH4=>CH3+H                      2.3E+38          -7.00           114360.
CH3+H=>CH4                      1.9E+36          -7.00             9050.
CH4+H=>CH3+H2                   2.2E+04           3.00             8750.
CH3+H2=>CH4+H                   9.57E+02          3.00             8750.
CH4+OH=>CH3+H2O                 1.6E+06           2.10             2460.
CH3+H2O=>CH4+OH                 3.02E+05          2.10            17422.
CH3+O=>CH2O+H                   6.8E+13           0.00                0.
CH2O+H=>HCO+H2                  2.5E+13           0.00             3991.
CH2O+OH=>HCO+H2O                3.E+13            0.00             1195.
HCO+H=>CO+H2                    4.E+13            0.00                0.
HCO+M=>CO+H+M                   6.E+14            0.00            14700.
CH4/6.5/ H2O/6.5/ CO2/1.5/ CO/0.75/ O2/0.4/ N2/0.4/
CH3+O2=>CH3O+O                  7.E+12            0.00            25652.
CH3O+H=>CH2O+H2                 2.E+13            0.00                0.
CH3O+M=>CH2O+H+M                2.4E+13           0.00            28812.
CH4/6.5/ H2O/6.5/ CO2/1.5/ CO/0.75/ O2/0.4/ N2/0.4/
HO2+HO2=>H2O2+O2                2.E+12            0.00                0.
H2O2+M=>OH+OH+M                 1.3E+17           0.00            45500.
CH4/6.5/ H2O/6.5/ CO2/1.5/ CO/0.75/ O2/0.4/ N2/0.4/
OH+OH+M=>H2O2+M                 9.86E+14          0.00            -5070.
CH4/6.5/ H2O/6.5/ CO2/1.5/ CO/0.75/ O2/0.4/ N2/0.4/
H2O2+OH=>H2O+HO2                1.E+13            0.00             1800.
H2O+HO2=>H2O2+OH                2.86E+13          0.00            32790.
OH+H+M=>H2O+M                   2.2E+22          -2.00                0.
CH4/6.5/ H2O/6.5/ CO2/1.5/ CO/0.75/ O2/0.4/ N2/0.4/
H+H+M=>H2+M                     1.8E+18          -1.00                0.
CH4/6.5/ H2O/6.5/ CO2/1.5/ CO/0.75/ O2/0.4/ N2/0.4/
END
