THERMO ALL
   200.000  1000.000  5000.000
AL                 62987AL  1               G  0200.00   5000.00  0600.00      1
 0.02559589E+02-0.01063224E-02 0.07202828E-06-0.02121105E-09 0.02289429E-13    2
 0.03890214E+06 0.05234522E+02 0.02736825E+02-0.05912374E-02-0.04033938E-05    3
 0.02322343E-07-0.01705599E-10 0.03886795E+06 0.04363880E+02                   4
AL2H6              62987AL  2H   6          G  0200.00   1500.00  0600.00      1
 0.02634884E+02 0.02135952E+00 0.03154151E-05-0.07684674E-07 0.02335832E-10    2
 0.08871346E+05 0.09827515E+02-0.06800681E+02 0.05080744E+00 0.01039747E-03    3
-0.01119582E-05 0.08459155E-09 0.01060537E+06 0.05554526E+03                   4
AL2ME6             62987AL  2C   6H  18     G  0200.00   1500.00  0600.00      1
 0.01773147E+03 0.04935747E+00 0.01196854E-04-0.01639826E-06 0.04890867E-10    2
-0.03855560E+06-0.05053298E+03-0.07159750E+01 0.01067109E+01 0.02117605E-03    3
-0.02193212E-05 0.01644144E-08-0.03515546E+06 0.03890763E+03                   4
ALAS               62987AL  1AS  1          G  0200.00   1500.00  0600.00      1
 0.04790027E+02-0.01908226E-03-0.01983390E-05 0.02239358E-08-0.06904706E-12    2
 0.05259290E+06 0.03259703E+02 0.05047764E+02-0.06419947E-02-0.01432071E-04    3
 0.04754391E-07-0.03297621E-10 0.05254264E+06 0.01985206E+02                   4
ALH                62987AL  1H   1          G  0200.00   5000.00  1000.00      1
 0.03392644E+02 0.01215399E-01-0.04676595E-05 0.08691625E-09-0.06022669E-13    2
 0.03006845E+06 0.02758899E+02 0.03071503E+02 0.02165549E-01-0.03275638E-04    3
 0.04136984E-07-0.01877121E-10 0.03021221E+06 0.04548855E+02                   4
ALH2               62987AL  1H   2          G  0200.00   1500.00  0600.00      1
 0.04486543E+02 0.03128832E-01-0.01969438E-05-0.01016030E-07 0.03497468E-11    2
 0.01960959E+06 0.08167897E+01 0.02442137E+02 0.09915913E-01 0.02471083E-05    3
-0.02119583E-06 0.01710234E-09 0.01997588E+06 0.01065270E+03                   4
ALH3               62987AL  1H   3          G  0200.00   1500.00  0600.00      1
 0.04186838E+02 0.06159249E-01-0.03877593E-06-0.02061928E-07 0.06600276E-11    2
 0.07908079E+05 0.05134396E+01 0.01008323E+02 0.01640324E+00 0.01976746E-04    3
-0.03528558E-06 0.02753378E-09 0.08484656E+05 0.01585838E+03                   4
ALME               62987AL  1C   1H   3     G  0200.00   1500.00  0600.00      1
 0.04662737E+02 0.07097939E-01 0.02520013E-05-0.02114863E-07 0.06097489E-11    2
 0.08203228E+05 0.01769245E+02 0.02664176E+02 0.01324914E+00 0.02525848E-04    3
-0.02394396E-06 0.01761855E-09 0.08574173E+05 0.01147449E+03                   4
ALME2              62987AL  1C   2H   6     G  0200.00   1500.00  0600.00      1
 0.06481282E+02 0.01474605E+00 0.05816529E-05-0.04621347E-07 0.01396041E-10    2
 0.03745072E+05-0.02603326E+02 0.09494573E+01 0.03206354E+00 0.06134021E-04    3
-0.06500042E-06 0.04911485E-09 0.04761408E+05 0.02419465E+03                   4
ALME3              62987AL  1C   3H   9     G  0200.00   1500.00  0600.00      1
 0.06654948E+02 0.02455144E+00 0.01176575E-04-0.07815023E-07 0.02255622E-10    2
-0.01340952E+06-0.03454481E+02-0.07027567E+01 0.04682764E+00 0.01149903E-03    3
-0.09160441E-06 0.06687294E-09-0.01203799E+06 0.03232771E+03                   4
AR                120186AR  1               G  0200.00   5000.00  1000.00      1
 0.02500000E+02 0.00000000E+00 0.00000000E+00 0.00000000E+00 0.00000000E+00    2
-0.07453750E+04 0.04366001E+02 0.02500000E+02 0.00000000E+00 0.00000000E+00    3
 0.00000000E+00 0.00000000E+00-0.07453750E+04 0.04366001E+02                   4
AS                 62987AS  1               G  0200.00   1500.00  0600.00      1
 0.02617011E+02 0.00000000E+00 0.00000000E+00 0.00000000E+00 0.00000000E+00    2
 0.03720455E+06 0.06995524E+02 0.02617011E+02 0.00000000E+00 0.00000000E+00    3
 0.00000000E+00 0.00000000E+00 0.03720455E+06 0.06995524E+02                   4
AS2                62987AS  2               G  0200.00   1500.00  0600.00      1
 0.04394201E+02 0.05389968E-02-0.02379401E-05-0.06541924E-09 0.05184186E-12    2
 0.02235094E+06 0.04897919E+02 0.03682892E+02 0.03121811E-01-0.01074052E-04    3
-0.05629472E-07 0.05178811E-10 0.02247356E+06 0.08283423E+02                   4
AS3                62987AS  3               G  0200.00   1500.00  0600.00      1
 0.07404036E+02 0.07818426E-02-0.03918297E-05-0.05203629E-09 0.06291907E-12    2
 0.03063825E+06-0.03417324E+02 0.06403142E+02 0.04477099E-01-0.01866642E-04    3
-0.07394750E-07 0.07012753E-10 0.03080965E+06 0.01337136E+02                   4
AS4                62987AS  4               G  0200.00   1500.00  0600.00      1
 0.09695766E+02 0.01306258E-01-0.05519564E-05-0.02150874E-08 0.01457935E-11    2
 0.01571732E+06-0.01618870E+03 0.07853761E+02 0.07916509E-01-0.02329820E-04    3
-0.01526312E-06 0.01377435E-09 0.01603629E+06-0.07409755E+02                   4
ASALME             62987AS  1AL  1C   1H   3G  0200.00   1500.00  0600.00      1
 0.07127107E+02 0.07357864E-01 0.02300796E-06-0.02226399E-07 0.06927227E-11    2
 0.03273438E+06-0.01847179E+02 0.04053423E+02 0.01726125E+00 0.01833498E-04    3
-0.03386953E-06 0.02626981E-09 0.03329309E+06 0.01299665E+03                   4
ASALME2            62987AS  1AL  1C   2H   6G  0200.00   1500.00  0600.00      1
 0.09909938E+02 0.01463850E+00 0.04118731E-05-0.04444658E-07 0.01329501E-10    2
 0.02815111E+06-0.01523531E+03 0.04808530E+02 0.03067687E+00 0.05048001E-04    3
-0.05908099E-06 0.04462290E-09 0.02908817E+06 0.09471621E+02                   4
ASGAET             62987AS  1GA  1C   2H   5G  0200.00   1500.00  0600.00      1
 0.09081073E+02 0.01674632E+00 0.01283130E-05-0.05590436E-07 0.01781315E-10    2
 0.03807443E+06-0.09142782E+02 0.06364698E+01 0.04382467E+00 0.06144686E-04    3
-0.09491641E-06 0.07374198E-09 0.03960893E+06 0.03164673E+03                   4
ASGAET2            62987AS  1GA  1C   4H  10G  0200.00   1500.00  0600.00      1
 0.01032429E+03 0.03073571E+00 0.01086335E-04-0.09971949E-07 0.02945979E-10    2
 0.03039490E+06-0.01316402E+03-0.03539248E+01 0.06369772E+00 0.01359742E-03    3
-0.01286142E-05 0.09572181E-09 0.03236903E+06 0.03865086E+03                   4
ASGAME             62987AS  1GA  1C   1H   3G  0200.00   1500.00  0600.00      1
 0.07322183E+02 0.06995479E-01 0.01069351E-05-0.01995283E-07 0.06040446E-11    2
 0.03949449E+06-0.07416680E+01 0.04877266E+02 0.01482559E+00 0.01652124E-04    3
-0.02712058E-06 0.02080196E-09 0.03994071E+06 0.01107670E+03                   4
ASGAME2            62987AS  1GA  1C   2H   6G  0200.00   1500.00  0600.00      1
 0.09352436E+02 0.01504820E+00 0.05157975E-05-0.04553518E-07 0.01348763E-10    2
 0.03735856E+06-0.01218114E+03 0.04382076E+02 0.03056345E+00 0.05477067E-04    3
-0.05834108E-06 0.04373509E-09 0.03827434E+06 0.01191111E+03                   4
ASGAMEH            62987AS  1GA  1C   1H   4G  0200.00   1500.00  0600.00      1
 0.07842794E+02 0.09682097E-01 0.01060306E-05-0.02991402E-07 0.09382673E-11    2
 0.04435297E+06-0.05093455E+02 0.03585119E+02 0.02336317E+00 0.02873356E-04    3
-0.04737895E-06 0.03674461E-09 0.04512703E+06 0.01547160E+03                   4
ASH                62987AS  1H   1          G  0200.00   1500.00  0600.00      1
 0.03219848E+02 0.01001250E-01-0.04874997E-08-0.01107653E-08-0.09254321E-13    2
 0.03008176E+06 0.06647311E+02 0.03865843E+02-0.01157571E-01-0.03494372E-05    3
 0.07079686E-07-0.06014028E-10 0.02996829E+06 0.03549869E+02                   4
ASH2               62987AS  1H   2          G  0200.00   1500.00  0600.00      1
 0.03428307E+02 0.03181140E-01 0.01460484E-05-0.07937145E-08 0.01694414E-11    2
 0.02010282E+06 0.02904703E+02 0.03778945E+02 0.01759233E-01 0.08070807E-05    3
 0.02358763E-07-0.03043521E-10 0.02004862E+06 0.01272974E+02                   4
ASH3               62987AS  1H   3          G  0200.00   1500.00  0600.00      1
 0.04172022E+02 0.04371323E-01 0.02177574E-05-0.01183264E-07 0.04536374E-11    2
 0.06882916E+05 0.02803477E+02 0.09446356E+01 0.01508469E+00 0.01201696E-04    3
-0.03397465E-06 0.02767656E-09 0.07459168E+05 0.01832268E+03                   4
C2CL3              40992C   2CL  3          G  0200.00   4000.00  1500.00      1
 0.01183853E+03 0.09460851E-02-0.02920870E-05 0.03847024E-09-0.01539560E-13    2
 0.02313143E+06-0.02891445E+03 0.04808647E+02 0.02212948E+00-0.02548847E-03    3
 0.01372083E-06-0.02812663E-10 0.02514353E+06 0.07232629E+02                   4
C2CL5              40992C   2CL  5          G  0200.00   4000.00  1500.00      1
 0.01775107E+03 0.09220800E-02-0.04852694E-05 0.01190373E-08-0.01100446E-12    2
-0.02402768E+05-0.05545676E+03 0.06414346E+02 0.03867367E+00-0.04857935E-03    3
 0.02734513E-06-0.05732891E-10 0.04697039E+04 0.01542036E+02                   4
C2CL6              40992C   2CL  6          G  0200.00   4000.00  1500.00      1
 0.02021422E+03 0.01757648E-01-0.05881040E-05 0.08029739E-09-0.03958238E-13    2
-0.02340156E+06-0.07096011E+03 0.07492710E+02 0.04318468E+00-0.05275048E-03    3
 0.02947143E-06-0.06176554E-10-0.02006555E+06-0.06635582E+02                   4
C2F6               82489C   2F   6          G  0200.00   5000.00  1000.00      1
 0.01602057E+03 0.06273007E-01-0.02797778E-04 0.05517547E-08-0.04004651E-12    2
-0.01675654E+07-0.05519459E+03 0.03577448E+02 0.03913670E+00-0.02714862E-03    3
 0.04348459E-08 0.04007135E-10-0.01642174E+07 0.09098384E+02                   4
C2H                81193C   2H   1          G  0200.00   4000.00  1000.00      1
 0.03986367E+02 0.03143123E-01-0.01267243E-04 0.02924363E-08-0.02716320E-12    2
 0.06655884E+06 0.01191063E+02 0.02737704E+02 0.08048446E-01-0.09244310E-04    3
 0.06525259E-07-0.01939580E-10 0.06683813E+06 0.07300220E+02                   4
C2H2              121386C   2H   2          G  0200.00   5000.00  1000.00      1
 0.04436770E+02 0.05376039E-01-0.01912817E-04 0.03286379E-08-0.02156710E-12    2
 0.02566766E+06-0.02800338E+02 0.02013562E+02 0.01519045E+00-0.01616319E-03    3
 0.09078992E-07-0.01912746E-10 0.02612444E+06 0.08805378E+02                   4
C2H3               12787C   2H   3          G  0200.00   5000.00  1000.00      1
 0.05933468E+02 0.04017746E-01-0.03966740E-05-0.01441267E-08 0.02378644E-12    2
 0.03185435E+06-0.08530313E+02 0.02459276E+02 0.07371476E-01 0.02109873E-04    3
-0.01321642E-07-0.01184784E-10 0.03335225E+06 0.01155620E+03                   4
C2H4              121286C   2H   4          G  0200.00   5000.00  1000.00      1
 0.03528419E+02 0.01148518E+00-0.04418385E-04 0.07844601E-08-0.05266848E-12    2
 0.04428289E+05 0.02230389E+02-0.08614880E+01 0.02796163E+00-0.03388677E-03    3
 0.02785152E-06-0.09737879E-10 0.05573046E+05 0.02421149E+03                   4
C2H5               12387C   2H   5          G  0200.00   5000.00  1000.00      1
 0.07190480E+02 0.06484077E-01-0.06428065E-05-0.02347879E-08 0.03880877E-12    2
 0.01067455E+06-0.01478089E+03 0.02690702E+02 0.08719133E-01 0.04419839E-04    3
 0.09338703E-08-0.03927773E-10 0.01287040E+06 0.01213820E+03                   4
C2H6              121686C   2H   6          G  0200.00   4000.00  1000.00      1
 0.04825938E+02 0.01384043E+00-0.04557259E-04 0.06724967E-08-0.03598161E-12    2
-0.01271779E+06-0.05239507E+02 0.01462539E+02 0.01549467E+00 0.05780507E-04    3
-0.01257832E-06 0.04586267E-10-0.01123918E+06 0.01443229E+03                   4
C2HCL             112989C   2H   1CL  1     G  0200.00   5000.00  1000.00      1
 0.06295372E+02 0.03883113E-01-0.01506049E-04 0.02700003E-08-0.01830213E-12    2
 0.02357279E+06-0.08137063E+02 0.03618443E+02 0.01331979E+00-0.01321822E-03    3
 0.06092024E-07-0.08879026E-11 0.02415385E+06 0.05050645E+02                   4
C2HCL5             40992H   1C   2CL  5     G  0200.00   4000.00  1500.00      1
 0.01897802E+03 0.02244275E-01-0.05864788E-05 0.02733950E-09 0.04934135E-13    2
-0.02494887E+06-0.06578714E+03 0.05356044E+02 0.04176390E+00-0.04710787E-03    3
 0.02550758E-06-0.05324478E-10-0.02079330E+06 0.04970258E+02                   4
C2N               121286C   2N   1          G  0200.00   5000.00  1000.00      1
 0.06151561E+02 0.01511650E-01-0.06629362E-05 0.01286148E-08-0.09160830E-13    2
 0.06484318E+06-0.08177850E+02 0.03498544E+02 0.08554433E-01-0.06288697E-04    3
 0.08638478E-08 0.04915996E-11 0.06556611E+06 0.05548374E+02                   4
C2N2              121286C   2N   2          G  0200.00   5000.00  1000.00      1
 0.06548003E+02 0.03984707E-01-0.01634216E-04 0.03038597E-08-0.02111069E-12    2
 0.03490716E+06-0.09735790E+02 0.04265459E+02 0.01192257E+00-0.01342014E-03    3
 0.09192297E-07-0.02778942E-10 0.03547888E+06 0.01713212E+02                   4
C2O               121286C   2O   1          G  0200.00   5000.00  1000.00      1
 0.04849809E+02 0.02947585E-01-0.01090729E-04 0.01792562E-08-0.01115758E-12    2
 0.03282055E+06-0.06453226E+01 0.03368851E+02 0.08241803E-01-0.08765145E-04    3
 0.05569262E-07-0.01540009E-10 0.03317081E+06 0.06713314E+02                   4
C3                121286C   3               G  0200.00   5000.00  1000.00      1
 0.03803710E+02 0.02253567E-01-0.07704535E-05 0.01316294E-08-0.08694264E-13    2
 0.09736135E+06 0.06128063E+02 0.04345528E+02 0.01264466E-01-0.04652557E-04    3
 0.08695856E-07-0.04243536E-10 0.09731403E+06 0.03519437E+02                   4
C3H2              102193H   2C   3          G  0150.00   4000.00  1000.00      1
 0.07670981E+02 0.02748749E-01-0.04370943E-05-0.06455599E-09 0.01663887E-12    2
 0.06259722E+06-0.01236890E+03 0.03166714E+02 0.02482572E+00-0.04591637E-03    3
 0.04268019E-06-0.01482152E-09 0.06350421E+06 0.08869446E+02                   4
C3H2(S)           101993H   2C   3          G  0200.00   4000.00  1400.00      1
 0.08351312E+02 0.02672278E-01-0.02129404E-05-0.01478218E-08 0.02583689E-12    2
 0.06800690E+06-0.01950884E+03 0.04749475E+02 0.08520229E-01-0.01160268E-04    3
-0.02494954E-07 0.09921004E-11 0.06939979E+06 0.05437792E+01                   4
C3H4              101993H   4C   3          G  0200.00   4000.00  1400.00      1
 0.09776256E+02 0.05302138E-01-0.03701118E-05-0.03026386E-08 0.05089581E-12    2
 0.01954972E+06-0.03077061E+03 0.02539831E+02 0.01633437E+00-0.01764950E-04    3
-0.04647365E-07 0.01729131E-10 0.02251243E+06 0.09935702E+02                   4
C3H4C             101993H   4C   3          G  0200.00   4000.00  1400.00      1
 0.09708652E+02 0.05344939E-01-0.03953553E-05-0.03111764E-08 0.05369406E-12    2
 0.02967722E+06-0.03073273E+03 0.01056162E+02 0.01905236E+00-0.02317048E-04    3
-0.05933690E-07 0.02307128E-10 0.03309110E+06 0.01761927E+03                   4
C3H4P             101993H   4C   3          G  0200.00   4000.00  1400.00      1
 0.09768102E+02 0.05219151E-01-0.03753140E-05-0.02992191E-08 0.05107878E-12    2
 0.01860277E+06-0.03020678E+03 0.03029730E+02 0.01498961E+00-0.01398500E-04    3
-0.03969619E-07 0.01388217E-10 0.02148408E+06 0.08004594E+02                   4
C3H6              120186C   3H   6          G  0200.00   5000.00  1000.00      1
 0.06732257E+02 0.01490834E+00-0.04949899E-04 0.07212022E-08-0.03766204E-12    2
-0.09235703E+04-0.01331335E+03 0.01493307E+02 0.02092518E+00 0.04486794E-04    3
-0.01668912E-06 0.07158146E-10 0.01074826E+05 0.01614534E+03                   4
C3H8              120186C   3H   8          G  0200.00   5000.00  1000.00      1
 0.07525217E+02 0.01889034E+00-0.06283924E-04 0.09179373E-08-0.04812410E-12    2
-0.01646455E+06-0.01784390E+03 0.08969208E+01 0.02668986E+00 0.05431425E-04    3
-0.02126001E-06 0.09243330E-10-0.01395492E+06 0.01935533E+03                   4
C3O2              121286C   3O   2          G  0200.00   5000.00  1000.00      1
 0.08098897E+02 0.05560040E-01-0.02312265E-04 0.04340709E-08-0.03036387E-12    2
-0.01421435E+06-0.01521974E+03 0.04018127E+02 0.01836661E+00-0.01907148E-03    3
 0.01185587E-06-0.03418748E-10-0.01312824E+06 0.05582084E+02                   4
C4                121286C   4               G  0200.00   5000.00  1000.00      1
 0.06500180E+02 0.04228632E-01-0.01790718E-04 0.03404813E-08-0.02403978E-12    2
 0.01143401E+07-0.01148889E+03 0.02343028E+02 0.01642981E+00-0.01527986E-03    3
 0.07343826E-07-0.01582274E-10 0.01154538E+07 0.09826204E+02                   4
C4H               121686C   4H   1          G  0200.00   5000.00  1000.00      1
 0.06242882E+02 0.06193683E-01-0.02085932E-04 0.03082203E-08-0.01636483E-12    2
 0.07568019E+06-0.07210806E+02 0.05023247E+02 0.07092375E-01-0.06073762E-07    3
-0.02275752E-07 0.08086994E-11 0.07623813E+06-0.06942594E+00                   4
C4H10              62090C   4H  10          G  0200.00   4000.00  1500.00      1
 0.01998785E+03 0.01037281E+00-0.09610818E-05-0.04623018E-08 0.08202828E-12    2
-0.02625571E+06-0.08837907E+03-0.02256618E+02 0.05881732E+00-0.04525783E-03    3
 0.02037115E-06-0.04079458E-10-0.01760233E+06 0.03329595E+03                   4
C4H2              121686C   4H   2          G  0200.00   5000.00  1000.00      1
 0.09031407E+02 0.06047253E-01-0.01948789E-04 0.02754863E-08-0.01385608E-12    2
 0.05294736E+06-0.02385068E+03 0.04005192E+02 0.01981000E+00-0.09865877E-04    3
-0.06635158E-07 0.06077413E-10 0.05424065E+06 0.01845737E+02                   4
C4H6              120186C   4H   6          G  0200.00   5000.00  1000.00      1
 0.08046583E+02 0.01648525E+00-0.05522227E-04 0.08123593E-08-0.04295078E-12    2
 0.01370130E+06-0.01800458E+03 0.03197108E+02 0.02025592E+00 0.06510192E-04    3
-0.01658442E-06 0.06400282E-10 0.01571520E+06 0.09895660E+02                   4
C4H8              120386C   4H   8          G  0200.00   5000.00  1000.00      1
 0.02053584E+02 0.03435051E+00-0.01588320E-03 0.03308966E-07-0.02536104E-11    2
-0.02139723E+05 0.01554320E+03 0.01181138E+02 0.03085338E+00 0.05086525E-04    3
-0.02465489E-06 0.01111019E-09-0.01790400E+05 0.02106247E+03                   4
C5                121286C   5               G  0200.00   5000.00  1000.00      1
 0.08078081E+02 0.05743464E-01-0.02436405E-04 0.04638916E-08-0.03278910E-12    2
 0.01147022E+07-0.01953024E+03 0.02115274E+02 0.02326332E+00-0.02109499E-03    3
 0.09072734E-07-0.01540093E-10 0.01162738E+07 0.01097603E+03                   4
C5H                20387C   5H   1          G  0200.00   5000.00  1000.00      1
 0.08695749E+02 0.06054301E-01-0.02016011E-04 0.02892893E-08-0.01470100E-12    2
 0.09031069E+06-0.02101595E+03 0.01634825E+02 0.02509538E+00-0.01206636E-03    3
-0.01046511E-06 0.08809988E-10 0.09212488E+06 0.01512194E+03                   4
C5H12              20387C   5H  12          G  0200.00   4000.00  1000.00      1
 0.01667798E+03 0.02114483E+00-0.03533321E-04-0.05742202E-08 0.01515948E-11    2
-0.02553670E+06-0.06372940E+03 0.01877908E+02 0.04121646E+00 0.01253234E-03    3
-0.03701537E-06 0.01525569E-09-0.02003816E+06 0.01877257E+03                   4
C5H2               20587C   5H   2          G  0200.00   5000.00  1000.00      1
 0.01132917E+03 0.07424057E-01-0.02628189E-04 0.04082541E-08-0.02301333E-12    2
 0.07878706E+06-0.03617117E+03 0.03062322E+02 0.02709998E+00-0.01009170E-03    3
-0.01272745E-06 0.09167219E-10 0.08114969E+06 0.07071078E+02                   4
C5H5              101993H   5C   5          G  0200.00   4000.00  1400.00      1
 0.01531094E+03 0.07473806E-01-0.05837458E-05-0.04386651E-08 0.07696839E-12    2
 0.02525890E+06-0.05951593E+03 0.01007316E+02 0.03189880E+00-0.04748189E-04    3
-0.01102390E-06 0.04584681E-10 0.03047390E+06 0.01934168E+03                   4
C5H6               20387C   5H   6          G  0200.00   5000.00  1000.00      1
 0.09689815E+02 0.01838262E+00-0.06264884E-04 0.09393377E-08-0.05087708E-12    2
 0.01102124E+06-0.03122908E+03-0.03196739E+02 0.04081361E+00 0.06816505E-05    3
-0.03137459E-06 0.01577223E-09 0.01529068E+06 0.03869939E+03                   4
C6H               121686C   6H   1          G  0200.00   5000.00  1000.00      1
 0.01158735E+03 0.07295363E-01-0.02466008E-04 0.03407046E-08-0.01498185E-12    2
 0.01031448E+07-0.03172578E+03 0.04769848E+02 0.02457279E+00-0.07561252E-04    3
-0.01480691E-06 0.09768054E-10 0.01048523E+07 0.03241530E+02                   4
C6H10              20387C   6H  10          G  0200.00   5000.00  1000.00      1
 0.01592777E+03 0.02374413E+00-0.06908672E-04 0.08109777E-08-0.02683123E-12    2
-0.08642656E+05-0.06525186E+03-0.01394228E+02 0.04720693E+00 0.01196042E-03    3
-0.04162896E-06 0.01740336E-09-0.02217790E+05 0.03129604E+03                   4
C6H14              20387C   6H  14          G  0200.00   4000.00  1000.00      1
 0.02280472E+03 0.02097989E+00-0.03530674E-04-0.05466245E-08 0.01478950E-11    2
-0.03073757E+06-0.09583162E+03 0.01836174E+02 0.05098461E+00 0.01259586E-03    3
-0.04428362E-06 0.01872237E-09-0.02292750E+06 0.02088145E+03                   4
C6H2              121686C   6H   2          G  0200.00   5000.00  1000.00      1
 0.01275652E+03 0.08034381E-01-0.02618215E-04 0.03725060E-08-0.01878851E-12    2
 0.08075469E+06-0.04041263E+03 0.05751085E+02 0.02636720E+00-0.01166760E-03    3
-0.01071450E-06 0.08790297E-10 0.08262013E+06-0.04335532E+02                   4
C6H3               20387C   6H   3          G  0200.00   5000.00  1000.00      1
 0.01276118E+03 0.01038557E+00-0.03479193E-04 0.05109733E-08-0.02690965E-12    2
 0.07477706E+06-0.03891745E+03 0.05007090E+02 0.02692852E+00-0.05919866E-04    3
-0.01527233E-06 0.09408310E-10 0.07713200E+06 0.02225621E+02                   4
C6H4              111293H   4C   6          G  0200.00   4000.00  1000.00      1
 0.01401625E+03 0.08242769E-01-0.08099664E-05-0.04654132E-08 0.08748122E-12    2
 0.04410396E+06-0.05139376E+03 0.01520024E+02 0.02876611E+00 0.01417725E-04    3
-0.01650589E-06 0.05873157E-10 0.04844894E+06 0.01719034E+03                   4
C6H5               82489C   6H   5          G  0200.00   4000.00  1000.00      1
 0.01577589E+03 0.09651109E-01-0.09429416E-05-0.05469111E-08 0.01026522E-11    2
 0.03302698E+06-0.06176280E+03 0.01143557E+01 0.03627325E+00 0.01158286E-04    3
-0.02196965E-06 0.08463556E-10 0.03836054E+06 0.02380117E+03                   4
C6H5(L)            82489C   6H   5          G  0200.00   4000.00  1000.00      1
 0.01721540E+03 0.08621068E-01-0.08221340E-05-0.04752164E-08 0.08844086E-12    2
 0.06385819E+06-0.06139128E+03 0.04854269E+02 0.03031659E+00 0.01742893E-05    3
-0.01811010E-06 0.07392511E-10 0.06798734E+06 0.05854935E+02                   4
C6H5O              82489C   6H   5O   1     G  0200.00   4000.00  1000.00      1
 0.01822639E+03 0.01003985E+00-0.09915668E-05-0.05672804E-08 0.01068372E-11    2
-0.02620846E+05-0.07361391E+03 0.01107497E+02 0.03956946E+00 0.08497295E-05    3
-0.02436311E-06 0.09650660E-10 0.03159672E+05 0.01973496E+03                   4
C6H5OH             82489C   6H   6O   1     G  0200.00   4000.00  1000.00      1
 0.01821633E+03 0.01142427E+00-0.01096684E-04-0.06427442E-08 0.01198893E-11    2
-0.02053664E+06-0.07304234E+03 0.01391456E+02 0.03931958E+00 0.01777096E-04    3
-0.02277673E-06 0.08309659E-10-0.01472181E+06 0.01917813E+03                   4
C6H6               20387C   6H   6          G  0200.00   5000.00  1000.00      1
 0.01291074E+03 0.01723297E+00-0.05024211E-04 0.05893497E-08-0.01947521E-12    2
 0.03664512E+05-0.05002699E+03-0.03138012E+02 0.04723103E+00-0.02962208E-04    3
-0.03262819E-06 0.01718692E-09 0.08890031E+05 0.03657573E+03                   4
C6H7               82489C   6H   7          G  0200.00   4000.00  1000.00      1
 0.01755221E+03 0.01227080E+00-0.01185742E-04-0.06959661E-08 0.01301326E-11    2
 0.01624581E+06-0.07166589E+03 0.04639166E+01 0.03975928E+00 0.02529095E-04    3
-0.02223792E-06 0.07557053E-10 0.02225169E+06 0.02235387E+03                   4
C8H               121686C   8H   1          G  0200.00   5000.00  1000.00      1
 0.01474991E+03 0.09931501E-01-0.03374841E-04 0.04687593E-08-0.02073536E-12    2
 0.01399448E+07-0.04892690E+03 0.04489508E+02 0.03521521E+00-0.01019390E-03    3
-0.02197025E-06 0.01421416E-09 0.01425992E+07 0.03996225E+02                   4
C8H2              121686C   8H   2          G  0200.00   5000.00  1000.00      1
 0.01568021E+03 0.01115461E+00-0.03724373E-04 0.05197891E-08-0.02375550E-12    2
 0.01081123E+07-0.05571437E+03 0.04630427E+02 0.03937080E+00-0.01148035E-03    3
-0.02562214E-06 0.01670791E-09 0.01108285E+07 0.08077425E+01                   4
CA                 80792CA  1               G  0200.00   5000.00  1000.00      1
 0.01636990E+02 0.01938281E-01-0.01464011E-04 0.04278257E-08-0.03581686E-12    2
 0.02109799E+06 0.08990615E+02 0.01563120E+02 0.06228361E-01-0.01415732E-03    3
 0.01323968E-06-0.04370569E-10 0.02092191E+06 0.08370537E+02                   4
CA(A)              81092CA  1               S  0200.00   1500.00  1000.00      1
 0.03344424E+02-0.06129555E-04-0.02048549E-05 0.02199575E-08-0.06498067E-12    2
-0.01020624E+05-0.01410880E+03 0.02492826E+02 0.03921280E-01-0.07242436E-04    3
 0.05919276E-07-0.01802531E-10-0.08641901E+04-0.01010018E+03                   4
CA(B)              81092CA  1               S  0200.00   2000.00  1000.00      1
 0.02149662E+02 0.02293734E-01 0.03948384E-05-0.01813978E-08 0.03060995E-12    2
-0.06970589E+04-0.07862350E+02 0.02013343E+02 0.02718935E-01-0.01374494E-05    3
 0.01528553E-08-0.06023681E-12-0.06613041E+04-0.07168449E+02                   4
CA(L)              81092CA  1               L  0200.00   3000.00  1000.00      1
 0.03623553E+02 0.00000000E+00 0.00000000E+00 0.00000000E+00 0.00000000E+00    2
 0.02310016E+04-0.01455354E+03 0.03623553E+02 0.00000000E+00 0.00000000E+00    3
 0.00000000E+00 0.00000000E+00 0.02310016E+04-0.01455354E+03                   4
CA2                80792CA  2               G  0200.00   5000.00  1000.00      1
 0.04174798E+02-0.07401838E-02 0.03131196E-05-0.05885577E-09 0.04296578E-13    2
 0.04052221E+06 0.07582380E+02 0.05604867E+02-0.04044408E-01 0.02454638E-04    3
-0.01495064E-08-0.01724184E-11 0.04008842E+06 0.01167234E+00                   4
CABR               80792BR  1CA  1          G  0200.00   5000.00  1000.00      1
 0.04312008E+02 0.04246804E-02-0.02536360E-05 0.07082421E-09-0.05508239E-13    2
-0.07242509E+05 0.05721414E+02 0.04004020E+02 0.01927770E-01-0.02749388E-04    3
 0.01785012E-07-0.04190442E-11-0.07199987E+05 0.07125700E+02                   4
CABR2              80792BR  2CA  1          G  0200.00   5000.00  1000.00      1
 0.07388434E+02 0.01393017E-02-0.06561619E-06 0.01342748E-09-0.09993272E-14    2
-0.04852787E+06-0.04337760E+02 0.06902053E+02 0.01599316E-01-0.01154723E-04    3
-0.02428795E-08 0.03707822E-11-0.04841873E+06-0.01900929E+02                   4
CABR2(S)           81292BR  2CA  1          S  0200.00   1500.00  1000.00      1
 0.01076200E+03-0.02979247E-01 0.06950511E-05 0.03569778E-07-0.01382224E-10    2
-0.08542235E+06-0.04524895E+03 0.05478536E+02 0.02209325E+00-0.04544460E-03    3
 0.04176543E-06-0.01322726E-09-0.08447516E+06-0.02052538E+03                   4
CACL               80792CA  1CL  1          G  0200.00   5000.00  1000.00      1
 0.04272197E+02 0.04612770E-02-0.02684554E-05 0.07233022E-09-0.05565813E-13    2
-0.01387933E+06 0.04556153E+02 0.03810549E+02 0.02372144E-01-0.02939380E-04    3
 0.01528166E-07-0.02396962E-11-0.01379994E+06 0.06742955E+02                   4
CACL2              80792CA  1CL  2          G  0200.00   5000.00  1000.00      1
 0.07322969E+02 0.02201546E-02-0.01035664E-05 0.02117574E-09-0.01575201E-13    2
-0.05893953E+06-0.06959426E+02 0.06595983E+02 0.02364235E-01-0.01611807E-04    3
-0.04866457E-08 0.05973912E-11-0.05877467E+06-0.03308009E+02                   4
CACL2(S)           81092CA  1CL  2          S  0200.00   2000.00  1000.00      1
 0.06749013E+02 0.03694542E-01-0.02199980E-05 0.01165549E-08-0.02193898E-12    2
-0.09759255E+06-0.02629777E+03 0.05722155E+02 0.01836100E+00-0.03597296E-03    3
 0.03173054E-06-0.09522563E-10-0.09798464E+06-0.02415730E+03                   4
CAF                80792CA  1F   1          G  0200.00   5000.00  1000.00      1
 0.04150489E+02 0.05746086E-02-0.03081448E-05 0.07585468E-09-0.05641270E-13    2
-0.03400290E+06 0.03725193E+02 0.03309446E+02 0.03419155E-01-0.03357208E-04    3
 0.01004510E-07 0.01112627E-11-0.03382332E+06 0.07876121E+02                   4
CAF2               80792CA  1F   2          G  0200.00   5000.00  1000.00      1
 0.06575083E+02 0.05172194E-02-0.02403804E-05 0.04876347E-09-0.03608526E-13    2
-0.09641588E+06-0.04868362E+02 0.05023320E+02 0.04921285E-01-0.03129418E-04    3
-0.01178313E-07 0.01260201E-10-0.09604913E+06 0.02984363E+02                   4
CAH2O2             81292CA  1H   2O   2     G  0200.00   5000.00  1000.00      1
 0.08627170E+02 0.03353668E-01-0.01123553E-04 0.01801642E-08-0.01122696E-12    2
-0.07617877E+06-0.01582838E+03 0.05634984E+02 0.01431225E+00-0.01160774E-03    3
 0.02415328E-08 0.02445194E-10-0.07567777E+06-0.01510141E+02                   4
CAH2O2(S)          81292CA  1H   2O   2     S  0200.00   1000.00  1000.00      1
 0.01418556E+03 0.00000000E+00 0.00000000E+00 0.00000000E+00 0.00000000E+00    2
-0.01237066E+07-0.07268995E+03-0.07906910E+01 0.06795647E+00-0.01329918E-02    3
 0.01211862E-05-0.04117456E-09-0.01204396E+07-0.07999789E+01                   4
CAI                80792CA  1I   1          G  0200.00   5000.00  1000.00      1
 0.04316128E+02 0.04138589E-02-0.02776385E-05 0.08074141E-09-0.06592826E-13    2
-0.01903879E+05 0.06725163E+02 0.04078205E+02 0.01812968E-01-0.02972846E-04    3
 0.02225520E-07-0.06173497E-11-0.01881151E+05 0.07754936E+02                   4
CAI2               80792CA  1I   2          G  0200.00   5000.00  1000.00      1
 0.07403366E+02 0.01208762E-02-0.05698306E-06 0.01167152E-09-0.08696049E-14    2
-0.03328039E+06-0.02870204E+02 0.06975307E+02 0.01413683E-01-0.01046359E-04    3
-0.01757655E-08 0.03111958E-11-0.03318450E+06-0.07269292E+01                   4
CAO                80792CA  1O   1          G  0200.00   5000.00  1000.00      1