!!!!!!!!!!!!!!!!!!!!!!!!!!!!!!!!!!!!!!!!!!!!!!!!!!!!!!!!!!!!!!!!!!!!!!!!!!!!!!!!!!!!!!!!!!!!!!!!!!!
!!!												!!!
!!!	"Shock Tube Study of the Pyrolysis Kinetics of Di- and Trimethoxy Methane"		!!!
!!!	M. Döntgen(1,2), M.E. Fuller(1,2), S. Peukert(3), D. Nativel(3),			!!!
!!!	C. Schulz(3), K.A. Heufer(2), C.F. Goldsmith(1)						!!!
!!!												!!!
!!!	1 School of Engineering, Brown University, Providence, RI 02912, USA			!!!
!!!	2 Chair of High Pressure Gas Dynamics, RWTH Aachen University, 52062 Aachen,		!!!
!!!	  Germany										!!!
!!!	3 IVG, Institute for Combustion and Gas Dynanmics-Reactive Fluids, University of	!!!
!!!	  Duisbug-Essen, Carl-Benz-Str. 199, 47057 Duisburg, Germany				!!!
!!!												!!!
!!!	NOTE: Search for the tag PRESENT WORK to find the sections with have been changed	!!!
!!!												!!!
!!!!!!!!!!!!!!!!!!!!!!!!!!!!!!!!!!!!!!!!!!!!!!!!!!!!!!!!!!!!!!!!!!!!!!!!!!!!!!!!!!!!!!!!!!!!!!!!!!!
!
THERMO
   300.000  1000.000  5000.000
AR                G 5/97AR  1  0    0      0G   200.000  6000.00  1000.00      1
 2.50000000E+00 0.00000000E+00 0.00000000E+00 0.00000000E+00 0.00000000E+00    2
-7.45375000E+02 4.37967491E+00 2.50000000E+00 0.00000000E+00 0.00000000E+00    3
 0.00000000E+00 0.00000000E+00-7.45375000E+02 4.37967491E+00 0.00000000E+00    4
N2                G 8/02N   2    0    0    0G   200.000  6000.00  1000.00      1
 2.95257637E+00 1.39690040E-03-4.92631603E-07 7.86010195E-11-4.60755204E-15    2
-9.23948688E+02 5.87188762E+00 3.53100528E+00-1.23660988E-04-5.02999433E-07    3
 2.43530612E-09-1.40881235E-12-1.04697628E+03 2.96747038E+00 0.00000000E+00    4
HE                G 5/97HE 1    0    0    0 G   200.000  6000.00  1000.00      1
 2.50000000E+00 0.00000000E+00 0.00000000E+00 0.00000000E+00 0.00000000E+00    2
-7.45375000E+02 9.28723974E-01 2.50000000E+00 0.00000000E+00 0.00000000E+00    3
 0.00000000E+00 0.00000000E+00-7.45375000E+02 9.28723974E-01 0.00000000E+00    4
KR  REF ELEMENT   g 8/97KR  1    0    0    0G   200.000  6000.000 1000.        1
 2.50001436E+00-2.78190281E-08 1.74071629E-11-4.31400304E-15 3.66743374E-19    2
-7.45380247E+02 5.49087778E+00 2.50000000E+00 0.00000000E+00 0.00000000E+00    3
 0.00000000E+00 0.00000000E+00-7.45375000E+02 5.49095651E+00 0.00000000E+00    4
H2                TPIS78H   2    0    0    0G   200.000  6000.00  1000.00      1
 2.93286575E+00 8.26608026E-04-1.46402364E-07 1.54100414E-11-6.88804800E-16    2
-8.13065581E+02-1.02432865E+00 2.34433112E+00 7.98052075E-03-1.94781510E-05    3
 2.01572094E-08-7.37611761E-12-9.17935173E+02 6.83010238E-01 0.00000000E+00    4
H                 L 6/94H   1    0    0    0G   200.000  6000.00  1000.00      1
 0.25000000E+01 0.00000000E+00 0.00000000E+00 0.00000000E+00 0.00000000E+00    2
 0.25473660E+05-0.44668285E+00 0.25000000E+01 0.00000000E+00 0.00000000E+00    3
 0.00000000E+00 0.00000000E+00 0.25473660E+05-0.44668285E+00 0.26219035E+05    4
O                 L 1/90O   1    0    0    0G   200.000  6000.00  1000.00      1
 2.54363697E+00-2.73162486E-05-4.19029520E-09 4.95481845E-12-4.79553694E-16    2
 2.92260120E+04 4.92229457E+00 3.16826710E+00-3.27931884E-03 6.64306396E-06    3
-6.12806624E-09 2.11265971E-12 2.91222592E+04 2.05193346E+00 2.99687009E+04    4
H2O               L 5/89H   2 O  1    0    0G   200.000  6000.00  1000.00      1
 0.26770389E+01 0.29731816E-02-0.77376889E-06 0.94433514E-10-0.42689991E-14    2
-0.29885894E+05 0.68825500E+01 0.41986352E+01-0.20364017E-02 0.65203416E-05    3
-0.54879269E-08 0.17719680E-11-0.30293726E+05-0.84900901E+00-0.29084817E+05    4
OH                IU3/03O   1 H  1    0    0G   200.000  6000.00  1000.00      1
 2.83853033E+00 1.10741289E-03-2.94000209E-07 4.20698729E-11-2.42289890E-15    2
 3.69780808E+03 5.84494652E+00 3.99198424E+00-2.40106655E-03 4.61664033E-06    3
-3.87916306E-09 1.36319502E-12 3.36889836E+03-1.03998477E-01 4.48613328E+03    4
H2O2              T 8/03H   2O   2    0    0G   200.000  6000.00  1000.00      1
 4.57977305E+00 4.05326003E-03-1.29844730E-06 1.98211400E-10-1.13968792E-14    2
-1.80071775E+04 6.64970694E-01 4.31515149E+00-8.47390622E-04 1.76404323E-05    3
-2.26762944E-08 9.08950158E-12-1.77067437E+04 3.27373319E+00-1.63425145E+04    4
HO2               T 1/09H   1O   2    0    0G   200.000  5000.00  1000.00      1
 4.17228741E+00 1.88117627E-03-3.46277286E-07 1.94657549E-11 1.76256905E-16    2
 3.10206839E+01 2.95767672E+00 4.30179807E+00-4.74912097E-03 2.11582905E-05    3
-2.42763914E-08 9.29225225E-12 2.64018485E+02 3.71666220E+00 1.47886045E+03    4
CO                RUS 79C   1O   1    0    0G   200.000  6000.00  1000.00      1
 0.30484859E+01 0.13517281E-02-0.48579405E-06 0.78853644E-10-0.46980746E-14    2
-0.14266117E+05 0.60170977E+01 0.35795335E+01-0.61035369E-03 0.10168143E-05    3
 0.90700586E-09-0.90442449E-12-0.14344086E+05 0.35084093E+01-0.13293628E+05    4
CO2               L 7/88C   1O   2    0    0G   200.000  6000.00  1000.00      1
 0.46365111E+01 0.27414569E-02-0.99589759E-06 0.16038666E-09-0.91619857E-14    2
-0.49024904E+05-0.19348955E+01 0.23568130E+01 0.89841299E-02-0.71220632E-05    3
 0.24573008E-08-0.14288548E-12-0.48371971E+05 0.99009035E+01-0.47328105E+05    4
HOCO              T05/06H  1 C  1 O  2    0 G   200.000  6000.00   1000.00     1
 5.39206152E+00 4.11221455E-03-1.48194900E-06 2.39875460E-10-1.43903104E-14    2
-2.38606717E+04-2.23529091E+00 2.92207919E+00 7.62453859E-03 3.29884437E-06    3
-1.07135205E-08 5.11587057E-12-2.30281524E+04 1.12925886E+01-2.18076591E+04    4
CH4               G 8/99C  1 H  4    0    0 G   200.000  6000.00  1000.00      1
 1.65326226E+00 1.00263099E-02-3.31661238E-06 5.36483138E-10-3.14696758E-14    2
-1.00095936E+04 9.90506283E+00 5.14911468E+00-1.36622009E-02 4.91453921E-05    3
-4.84246767E-08 1.66603441E-11-1.02465983E+04-4.63848842E+00-8.97226656E+03    4
CH3               IU0702C  1 H  3    0    0 G   200.000  6000.00  1000.00      1
 0.29781206E+01 0.57978520E-02-0.19755800E-05 0.30729790E-09-0.17917416E-13    2
 0.16509513E+05 0.47224799E+01 0.36571797E+01 0.21265979E-02 0.54583883E-05    3
-0.66181003E-08 0.24657074E-11 0.16422716E+05 0.16735354E+01 0.17643935E+05    4
CH2               IU3/03C  1 H  2    0    0 G   200.000  6000.00  1000.00      1
 3.14631886E+00 3.03671259E-03-9.96474439E-07 1.50483580E-10-8.57335515E-15    2
 4.60412605E+04 4.72341711E+00 3.71757846E+00 1.27391260E-03 2.17347251E-06    3
-3.48858500E-09 1.65208866E-12 4.58723866E+04 1.75297945E+00 4.70504920E+04    4
CH2(S)            IU6/03C  1 H  2    0    0 G   200.000  6000.00  1000.00      1
 3.13501686E+00 2.89593926E-03-8.16668090E-07 1.13572697E-10-6.36262835E-15    2
 5.05040504E+04 4.06030621E+00 4.19331325E+00-2.33105184E-03 8.15676451E-06    3
-6.62985981E-09 1.93233199E-12 5.03662246E+04-7.46734310E-01 5.15727280E+04    4
C                 L 7/88C   1     0    0   0G   200.000  6000.00  1000.00      1
 0.26055830E+01-0.19593434E-03 0.10673722E-06-0.16423940E-10 0.81870580E-15    2
 0.85411742E+05 0.41923868E+01 0.25542395E+01-0.32153772E-03 0.73379223E-06    3
-0.73223487E-09 0.26652144E-12 0.85442681E+05 0.45313085E+01 0.86195097E+05    4
CH                IU3/03C  1 H  1    0    0 G   200.000  6000.00  1000.00      1
 0.25209369E+01 0.17653639E-02-0.46147660E-06 0.59289675E-10-0.33474501E-14    2
 0.70946769E+05 0.74051829E+01 0.34897583E+01 0.32432160E-03-0.16899751E-05    3
 0.31628420E-08-0.14061803E-11 0.70612646E+05 0.20842841E+01 0.71658188E+05    4
CHV               073003C   1H   1          G  0300.00   5000.00  1000.00      1
 0.02196223E+02 0.02340381E-01-0.07058201E-05 0.09007582E-09-0.03855040E-13    2
 0.10419559E+06 0.09178373E+02 0.03200202E+02 0.02072875E-01-0.05134431E-04    3
 0.05733890E-07-0.01955533E-10 0.10393714E+06 0.03331587E+02                   4
CH3O2H            A 7/05C  1 H  4 O  2    0 G   200.000  6000.00  1000.00      1
 7.76538058E+00 8.61499712E-03-2.98006935E-06 4.68638071E-10-2.75339255E-14    2
-1.82979984E+04-1.43992663E+01 2.90540897E+00 1.74994735E-02 5.28243630E-06    3
-2.52827275E-08 1.34368212E-11-1.68894632E+04 1.13741987E+01-1.52423685E+04    4
CH3O2                   H   3C   1O   2    0G   300.000  5000.000 1374.000    11
 6.47970487E+00 7.44401080E-03-2.52348555E-06 3.89577296E-10-2.25182399E-14    2
-1.56285441E+03-8.19477074E+00 1.97339205E+00 1.53542340E-02-6.37314891E-06    3
 3.19930565E-10 2.82193915E-13 2.54278835E+02 1.69194215E+01                   4
CH2O2H     9/ 1/12      C   1H   3O   2    0G   300.000  5000.000 1410.000    21
 9.24697852E+00 4.60845541E-03-1.53501472E-06 2.34434830E-10-1.34573106E-14    2
 4.11529953E+03-2.11503248E+01 2.88976454E+00 2.09465776E-02-1.75190772E-05    3
 7.27819787E-09-1.18912344E-12 6.12390620E+03 1.23802076E+01                   4
CH3OH             T06/02C   1H  4 O  1    0 G   200.000  6000.00  1000.00      1
 3.52726795E+00 1.03178783E-02-3.62892944E-06 5.77448016E-10-3.42182632E-14    2
-2.60028834E+04 5.16758693E+00 5.65851051E+00-1.62983419E-02 6.91938156E-05    3
-7.58372926E-08 2.80427550E-11-2.56119736E+04-8.97330508E-01-2.41746056E+04    4
CH3O              IU1/03C  1 H  3 O  1    0 G   200.000  6000.00  1000.00      1
 4.75779238E+00 7.44142474E-03-2.69705176E-06 4.38090504E-10-2.63537098E-14    2
 3.78111940E+02-1.96680028E+00 3.71180502E+00-2.80463306E-03 3.76550971E-05    3
-4.73072089E-08 1.86588420E-11 1.29569760E+03 6.57240864E+00 2.52571660E+03    4
CH2OH             IU2/03C  1 H  3 O  1    0 G   200.000  6000.00   1000.00     1
 5.09314370E+00 5.94761260E-03-2.06497460E-06 3.23008173E-10-1.88125902E-14    2
-4.03409640E+03-1.84691493E+00 4.47834367E+00-1.35070310E-03 2.78484980E-05    3
-3.64869060E-08 1.47907450E-11-3.50072890E+03 3.30913500E+00-2.04462770E+03    4
CH2O              T 5/11H   2C   1O   1    0G   200.000  6000.00  1000.00      1
 3.16952665E+00 6.19320560E-03-2.25056366E-06 3.65975660E-10-2.20149458E-14    2
-1.45486831E+04 6.04207898E+00 4.79372312E+00-9.90833322E-03 3.73219990E-05    3
-3.79285237E-08 1.31772641E-11-1.43791953E+04 6.02798058E-01-1.31293365E+04    4
HCO               T 5/03C  1 H  1 O  1    0 G   200.000  6000.00  1000.00      1
 3.92001542E+00 2.52279324E-03-6.71004164E-07 1.05615948E-10-7.43798261E-15    2
 3.65342928E+03 3.58077056E+00 4.23754610E+00-3.32075257E-03 1.40030264E-05    3
-1.34239995E-08 4.37416208E-12 3.87241185E+03 3.30834869E+00 5.08749163E+03    4
HCOH              MAR94 C   1H   2O   1    0G   300.     5000.    1398.        1
 9.18749272E+00 1.52011152E-03-6.27603516E-07 1.09727989E-10-6.89655128E-15    2
 7.81364593E+03-2.73434214E+01-2.82157421E+00 3.57331702E-02-3.80861580E-05    3
 1.86205951E-08-3.45957838E-12 1.12956672E+04 3.48487757E+01                   4
HO2CHO     6/26/95 THERMC   1H   2O   3    0G   300.000  5000.000 1378.00     21
 9.87503878E+00 4.64663708E-03-1.67230522E-06 2.68624413E-10-1.59595232E-14    2
-3.80502496E+04-2.24939155E+01 2.42464726E+00 2.19706380E-02-1.68705546E-05    3
 6.25612194E-09-9.11645843E-13-3.54828006E+04 1.75027796E+01                   4
HOCH2O2H   9/ 1/12      C   1H   4O   3    0G   300.000  5000.000 1398.000    21
 1.24531886E+01 7.18221110E-03-2.47029548E-06 3.85611737E-10-2.24774193E-14    2
-4.24862928E+04-3.58745197E+01 5.35189713E-01 3.73266553E-02-3.15299511E-05    3
 1.30352583E-08-2.11473264E-12-3.86609415E+04 2.71776082E+01                   4
HOCH2O2    9/ 1/12      C   1H   3O   3    0G   300.000  5000.000 1377.000    21
 1.16406115E+01 5.72826040E-03-2.05362036E-06 3.29070695E-10-1.95188360E-14    2
-2.53505769E+04-3.07332064E+01 2.82068616E+00 2.47857094E-02-1.66186399E-05    3
 4.79633095E-09-4.28087766E-13-2.22077036E+04 1.70599803E+01                   4
OCH2O2H    7/21/14 THERMC   1H   3O   3    0G   300.000  5000.000 1418.000    31
 1.29622491E+01 4.21948855E-03-1.54275194E-06 2.50413077E-10-1.49855537E-14    2
-1.81326406E+04-3.87016356E+01 4.46349361E-01 3.63049606E-02-3.26130978E-05    3
 1.37050551E-08-2.20872791E-12-1.41972598E+04 2.72960376E+01                   4
HOCH2O     2/16/99 THERMC   1H   3O   2    0G   300.000  5000.000 1452.000    11
 6.39521515E+00 7.43673043E-03-2.50422354E-06 3.84879712E-10-2.21778689E-14    2
-2.41108840E+04-6.63865583E+00 4.11183145E+00 7.53850697E-03 3.77337370E-06    3
-5.38746005E-09 1.45615887E-12-2.28023001E+04 7.46807254E+00                   4
HOCHO             L 8/88H   2C   1O   2    0G   200.000  6000.00  1000.00      1
 0.46138316E+01 0.64496364E-02-0.22908251E-05 0.36716047E-09-0.21873675E-13    2
-0.47514850E+05 0.84788383E+00 0.38983616E+01-0.35587795E-02 0.35520538E-04    3
-0.43849959E-07 0.17107769E-10-0.46770609E+05 0.73495397E+01-0.45531246E+05    4
OCHO              ATCT/AC  1 O  2 H  1    0 G   200.000  6000.000 1000.00      1
 4.14394211E+00 5.59738818E-03-1.99794019E-06 3.16179193E-10-1.85614483E-14    2
-1.72459887E+04 5.07778617E+00 4.68825921E+00-4.14871834E-03 2.55066010E-05    3
-2.84473900E-08 1.04422559E-11-1.69867041E+04 4.28426480E+00-1.55992356E+04    4
C2H6              G 8/88C   2H 6    0      0G   200.000  6000.00  1000.00      1
 4.04666411E+00 1.53538802E-02-5.47039485E-06 8.77826544E-10-5.23167531E-14    2
-1.24473499E+04-9.68698313E-01 4.29142572E+00-5.50154901E-03 5.99438458E-05    3
-7.08466469E-08 2.68685836E-11-1.15222056E+04 2.66678994E+00-1.00849652E+04    4
C2H5       8/ 4/ 4 THERMC   2H   5    0    0G   300.000  5000.000 1387.000    11
 5.88784390E+00 1.03076793E-02-3.46844396E-06 5.32499257E-10-3.06512651E-14    2
 1.15065499E+04-8.49651771E+00 1.32730217E+00 1.76656753E-02-6.14926558E-06    3
-3.01143466E-10 4.38617775E-13 1.34284028E+04 1.71789216E+01                   4
C2H5O2H    9/ 1/12      C   2H   6O   2    0G   300.000  5000.000 1390.000    31
 1.04823538E+01 1.34779879E-02-4.62179078E-06 7.18618519E-10-4.17307436E-14    2
-2.46578171E+04-2.84294243E+01 1.83755328E+00 3.38053586E-02-2.37548140E-05    3
 9.31974865E-09-1.58003428E-12-2.15814086E+04 1.80977584E+01                   4
C2H5O2     9/ 1/12      C   2H   5O   2    0G   300.000  5000.000 1389.000    21
 9.50282570E+00 1.20429839E-02-4.09491581E-06 6.33049241E-10-3.66133788E-14    2
-7.37069391E+03-2.21717130E+01 3.90351912E+00 2.22599212E-02-1.01610079E-05    3
 1.71709751E-09 1.88166738E-14-5.09654081E+03 8.98722750E+00                   4
C2H4       8/12/15      C   2H   4    0    0G   300.000  5000.000 1392.000    01
 5.07061289E+00 9.11140768E-03-3.10506692E-06 4.80733851E-10-2.78321396E-14    2
 3.66391217E+03-6.64501414E+00 4.81118223E-01 1.83778060E-02-9.99633565E-06    3
 2.73211039E-09-3.01837289E-13 5.44386648E+03 1.85867157E+01                   4
C2H3       8/12/15      C   2H   3    0    0G   300.000  5000.000 1400.000    01
 4.99675415E+00 6.55838271E-03-2.20921909E-06 3.39300272E-10-1.95316926E-14    2
 3.34604382E+04-3.01451097E+00 1.25545094E+00 1.57481597E-02-1.12218328E-05    3
 4.50915682E-09-7.74861577E-13 3.47435574E+04 1.69664043E+01                   4
C2H2              G 1/91C  2 H  2    0    0 G   200.000  6000.00  1000.00      1
 4.65878489E+00 4.88396667E-03-1.60828888E-06 2.46974544E-10-1.38605959E-14    2
 2.57594042E+04-3.99838194E+00 8.08679682E-01 2.33615762E-02-3.55172234E-05    3
 2.80152958E-08-8.50075165E-12 2.64289808E+04 1.39396761E+01 2.74459950E+04    4
H2CC              L12/89H   2C   2    0    0G   200.000  6000.000  1000.000    1
 0.42780340E+01 0.47562804E-02-0.16301009E-05 0.25462806E-09-0.14886379E-13    2
 0.48316688E+05 0.64023701E+00 0.32815483E+01 0.69764791E-02-0.23855244E-05    3
-0.12104432E-08 0.98189545E-12 0.48621794E+05 0.59203910E+01 0.49887266E+05    4
C2H5OH     8/12/15      C   2H   6O   1    0G   300.000  5000.000 1402.000    21
 8.14483865E+00 1.28314052E-02-4.29052743E-06 6.55971721E-10-3.76506611E-14    2
-3.24005526E+04-1.86241126E+01 2.15805861E-01 2.95228396E-02-1.68271048E-05    3
 4.49484797E-09-4.02451543E-13-2.94851823E+04 2.45725052E+01                   4
C2H5O      8/12/15      C   2H   5O   1    0G   300.000  5000.000 1467.000    11
 8.19120635E+00 1.10391986E-02-3.75270536E-06 5.80275784E-10-3.35735146E-14    2
-5.66847208E+03-1.90131344E+01 2.90353584E+00 1.77256708E-02-2.69624757E-06    3
-3.45830533E-09 1.25224784E-12-3.28930290E+03 1.13545591E+01                   4
PC2H4OH    8/12/15      C   2H   5O   1    0G   300.000  5000.000 1395.000    21
 8.06750150E+00 1.06143554E-02-3.57999360E-06 5.50363760E-10-3.17051769E-14    2
-6.92747939E+03-1.53833428E+01 2.59479867E+00 2.27100669E-02-1.39473846E-05    3
 4.70095591E-09-6.90044236E-13-4.91486975E+03 1.43240718E+01                   4
SC2H4OH    8/12/15      C   2H   5O   1    0G   300.000  5000.000 1385.000    21
 8.15007136E+00 1.02549305E-02-3.40137764E-06 5.17509965E-10-2.96128942E-14    2
-1.05014386E+04-1.73134615E+01 1.46281093E+00 2.39193995E-02-1.30667185E-05    3
 3.10615465E-09-1.85896007E-13-8.00790323E+03 1.92547092E+01                   4
C2H4O1-2          L 8/88C  2 H  4 O  1    0 G   200.000  6000.00  1000.00      1
 0.54887641E+01 0.12046190E-01-0.43336931E-05 0.70028311E-09-0.41949088E-13    2
-0.91804251E+04-0.70799605E+01 0.37590532E+01-0.94412180E-02 0.80309721E-04    3
-0.10080788E-06 0.40039921E-10-0.75608143E+04 0.78497475E+01-0.63304657E+04    4
C2H3O1-2          A 1/05C  2 H  3 O  1    0 G   200.000  6000.00  1000.00      1
 5.60158035E+00 9.17613962E-03-3.28028902E-06 5.27903888E-10-3.15362241E-14    2
 1.71446252E+04-5.47228512E+00 3.58349017E+00-6.02275805E-03 6.32426867E-05    3
-8.18540707E-08 3.30444505E-11 1.85681353E+04 9.59725926E+00 1.97814471E+04    4
CH3CHO            L 8/88C  2 H  4 O   1   0 G   200.000  6000.00  1000.00      1
 0.54041108E+01 0.11723059E-01-0.42263137E-05 0.68372451E-09-0.40984863E-13    2
-0.22593122E+05-0.34807917E+01 0.47294595E+01-0.31932858E-02 0.47534921E-04    3
-0.57458611E-07 0.21931112E-10-0.21572878E+05 0.41030159E+01-0.19987949E+05    4
CH3CO             IU2/03C  2 H  3 O  1    0 G   200.000  6000.00  1000.00      1
 0.53137165E+01 0.91737793E-02-0.33220386E-05 0.53947456E-09-0.32452368E-13    2
-0.36450414E+04-0.16757558E+01 0.40358705E+01 0.87729487E-03 0.30710010E-04    3
-0.39247565E-07 0.15296869E-10-0.26820738E+04 0.78617682E+01-0.12388039E+04    4
CH2CHO            T03/10C  2 H  3 O  1    0 G   200.000  6000.00  1000.00      1
 6.53928338E+00 7.80238629E-03-2.76413612E-06 4.42098906E-10-2.62954290E-14    2
-1.18858659E+03-8.72091393E+00 2.79502600E+00 1.01099472E-02 1.61750645E-05    3
-3.10303145E-08 1.39436139E-11 1.62944975E+02 1.23646657E+01 1.53380440E+03    4
C2H3OH     2/ 3/ 9 THERMC   2H   4O   1    0G   300.000  5000.000 1410.000    11
 8.32598158E+00 8.03387281E-03-2.63928405E-06 3.98410726E-10-2.26551155E-14    2
-1.83221436E+04-2.02080305E+01-1.27972260E-01 3.38506073E-02-3.30644935E-05    3
 1.64858739E-08-3.19935455E-12-1.59914544E+04 2.30438601E+01                   4
C2H2OH                  H   3C   2O   1    0G   300.000  5000.000 1401.000    11
 8.20268447E+00 5.92989165E-03-1.99194448E-06 3.05794341E-10-1.76114732E-14    2
 1.24881328E+04-1.89670436E+01 6.41642616E-01 2.61903633E-02-2.30385370E-05    3
 1.02804704E-08-1.81971416E-12 1.48276951E+04 2.06750999E+01                   4
CH2CO                   H   2C   2O   1    0G    300.00   5000.00 1000.00      1
 5.35869367E+00 6.95641586E-03-2.64802637E-06 4.65067592E-10-3.08641820E-14    2
-7.90294013E+03-3.98525731E+00 1.81422511E+00 1.99008590E-02-2.21416008E-05    3
 1.45028521E-08-3.98877068E-12-7.05394926E+03 1.36079359E+01                   4
HCCO              T 4/09H  1 C  2 O  1    0 G   200.000  6000.00  1000.00      1
 5.91479333E+00 3.71408730E-03-1.30137010E-06 2.06473345E-10-1.21476759E-14    2
 1.93596301E+04-5.50567269E+00 1.87607969E+00 2.21205418E-02-3.58869325E-05    3
 3.05402541E-08-1.01281069E-11 2.01633840E+04 1.36968290E+01 2.14444387E+04    4
CH3CO3H    6/26/95 THERMC   2H   4O   3    0G   300.000  5000.000 1391.000    31
 1.25060485E+01 9.47789695E-03-3.30402246E-06 5.19630793E-10-3.04233568E-14    2
-4.59856703E+04-3.79195947E+01 2.24135876E+00 3.37963514E-02-2.53887482E-05    3
 9.67583587E-09-1.49266157E-12-4.24677831E+04 1.70668133E+01                   4
CH3CO3     4/ 3/ 0 THERMC   2H   3O   3    0G   300.000  5000.000 1391.000    21
 1.12522498E+01 8.33652672E-03-2.89014530E-06 4.52781734E-10-2.64354456E-14    2
-2.60238584E+04-2.96370457E+01 3.60373432E+00 2.70080341E-02-2.08293438E-05    3
 8.50541104E-09-1.43846110E-12-2.34205171E+04 1.12014914E+01                   4
CH3CO2     2/14/95 THERMC   2H   3O   2    0G   300.000  5000.000 1395.000    11
 8.54059736E+00 8.32951214E-03-2.84722010E-06 4.41927196E-10-2.56373394E-14    2
-2.97290678E+04-2.03883545E+01 1.37440768E+00 2.49115604E-02-1.74308894E-05    3
 6.24799508E-09-9.09516835E-13-2.72330150E+04 1.81405454E+01                   4
CH3OCH3    2/11/14 THERMC   2H   6O   1    0G   300.000  5000.000 1999.000    21
 6.03232751E+00 1.56155270E-02-5.50761030E-06 8.75666140E-10-5.17180562E-14    2
-2.52690354E+04-8.25885183E+00 2.05597390E+00 2.07019456E-02-5.00382376E-06    3
-1.62279885E-09 6.84330155E-13-2.35494445E+04 1.45029944E+01                   4
CH3OCH2    2/11/14 THERMC   2H   5O   1    0G   300.000  5000.000 1395.000    11
 6.62621974E+00 1.22219496E-02-4.12416696E-06 6.34127512E-10-3.65317390E-14    2
-3.33965890E+03-8.95305753E+00 1.58874948E+00 2.24414123E-02-1.19434933E-05    3
 3.37160213E-09-4.15077249E-13-1.37208255E+03 1.87548958E+01                   4
HO2CH2OCHO 2/12/14 THERMC   2H   4O   4    0G   300.000  5000.000 1386.000    31
 1.57136128E+01 9.64430166E-03-3.44136025E-06 5.49722196E-10-3.25360322E-14    2
-6.29409094E+04-5.29505242E+01 1.21909586E+00 4.28858235E-02-3.17634222E-05    3
 1.11542676E-08-1.49753153E-12-5.79287926E+04 2.49759193E+01                   4
OCH2OCHO   5/29/14 THERMC   2H   3O   3    0G   300.000  5000.000 1523.000    21
 1.24013200E+01 7.83738243E-03-2.82992688E-06 4.55558739E-10-2.71061389E-14    2
-4.68453470E+04-3.78084549E+01 1.89539692E+00 2.74118545E-02-1.36476090E-05    3
 1.26325603E-09 5.17970476E-13-4.27879440E+04 2.02333278E+01                   4
HOCH2OCO   5/29/14 THERMC   2H   3O   3    0G   300.000  5000.000 1443.000    11
 1.11498410E+01 9.34736520E-03-3.35541548E-06 5.38037115E-10-3.19260183E-14    2
-4.75012119E+04-2.95983867E+01 5.95255071E+00 8.42196282E-03 1.36741678E-05    3
-1.46786275E-08 3.84143533E-12-4.44470269E+04 2.85657217E+00                   4
CH3OCH2O   5/15/14 THERMC   2H   5O   2    0G   300.000  5000.000 1523.000    31
 9.81288609E+00 1.21313106E-02-4.30285768E-06 6.84443177E-10-4.03862658E-14    2
-2.50760742E+04-2.51866352E+01 5.63414373E+00 8.92830283E-03 1.37225633E-05    3
-1.40497059E-08 3.54625624E-12-2.22825214E+04 1.93588846E+00                   4
CH3OCHO           T 6/08C  2 H  4 O  2    0 G   200.000  6000.00  1000.00      1
 6.33360880E+00 1.34851485E-02-4.84305805E-06 7.81719241E-10-4.67917447E-14    2
-4.68316521E+04-6.91542601E+00 5.96757028E+00-9.38085425E-03 7.07648417E-05    3
-8.29932227E-08 3.13522917E-11-4.55713267E+04 7.50341113E-01-4.37330508E+04    4
CH3OCO     5/ 8/ 3 THERMC   2H   3O   2    0G   300.000  5000.000 1601.000    21
 9.73659803E+00 7.42432713E-03-2.65641779E-06 4.25031143E-10-2.51824924E-14    2
-2.36015721E+04-2.36353471E+01 4.16215406E+00 1.38037511E-02-3.08486109E-07    3
-4.56430814E-09 1.46909632E-12-2.10130301E+04 8.64301044E+00                   4
CH2OCHO    4/15/ 8 THERMC   2H   3O   2    0G   300.000  5000.000 1442.000    21
 1.00960096E+01 7.19887066E-03-2.59813465E-06 4.18110812E-10-2.48723387E-14    2
-2.36389018E+04-2.71144175E+01 2.31031671E+00 1.80474065E-02-2.71519637E-06    3
-4.60918579E-09 1.70037078E-12-2.02910878E+04 1.71549722E+01                   4
CH3OCH2OCH3        MBFD C   3H   8O   2     G   100.000  4000.000 1000.000     1 !\AUTHOR: Kopp/DMM !\REF: CnF 189 (2018) 433-442 !\COMMENT:  
 3.62900361E+00 3.61977371E-02-1.81547692E-05 4.28375225E-09-3.85037027E-13    2
-4.35509717E+04 1.04208760E+01 5.38872321E+00 1.38240288E-02 6.29873619E-05    3
-9.79182636E-08 4.12888364E-11-4.39554849E+04 3.71667659E+00                   4
CH3OCH2OCH2        MBFD C   3H   7O   2     G   100.000  4000.000 1000.000     1 !\AUTHOR: Kopp/DMM !\REF: CnF 189 (2018) 433-442 !\COMMENT:  
 8.07320728E+00 2.54135929E-02-1.20542654E-05 2.71647731E-09-2.35424292E-13    2
-2.23247764E+04-1.15177413E+01 2.74029708E+00 4.21443596E-02-2.23048959E-05    3
-5.64292124E-09 6.97674816E-12-2.12929577E+04 1.46986688E+01                   4
CH3OCHOCH3         MBFD C   3H   7O   2     G   100.000  4000.000 1000.000     1 !\AUTHOR: Kopp/DMM !\REF: CnF 189 (2018) 433-442 !\COMMENT:  
 6.35183807E+00 2.70351735E-02-1.24198687E-05 2.71354721E-09-2.28721159E-13    2
-2.16781244E+04-6.39037689E-01 5.05574228E+00 2.76444811E-02-3.88680706E-06    3
-1.09961155E-08 5.63466819E-12-2.12762985E+04 6.54227673E+00                   4
!
!!!!!!!!!!!!!!!!!!!!!!!!!!!!!!!!!!!!!!!!!!!!!!!!!!!!!!!!!!!!!!!!!!!!!!!!!!!!!!!!!!!!!!!!!!!!!!!!!!!
!!!	PRESENT WORK										!!!
!!!	=> TMM RH, Rt, and Rnt thermochemistry							!!!
CH3OCHOCH3OCH3    Brown C  4 O  3 H 10    0 G   300.000  3000.000 1000.000     1
 4.10395985E+00 5.34768218E-02-3.12388783E-05 9.00458626E-09-1.02571105E-12    2
-6.74569142E+04-2.19808689E+00 7.10509061E+00 2.44153978E-02 4.79711168E-05    3
-7.59161612E-08 3.07208861E-11-6.74562688E+04-1.31090841E+01                   4
!
CH3OCHOCH3OCH2    Brown C  4 O  3 H  9    0 G   300.000  3000.000 1000.000     1
 5.57387359E+00 5.08875132E-02-3.46975489E-05 1.18256072E-08-1.57781312E-12    2
-4.52361582E+04-8.74814305E+00 4.95370748E+00 5.46311111E-02-3.97218362E-05    3
 1.31085524E-08-1.04922544E-12-4.52364287E+04-6.25077979E+00                   4
!
CH3OCOCH3OCH3     Brown C  4 O  3 H  9    0 G   300.000  3000.000 1000.000     1
 6.36208308E+00 4.55226857E-02-2.76464028E-05 8.38208550E-09-1.00781983E-12    2
-4.51364837E+04-1.28955506E+01 4.58039868E+00 5.70589284E-02-4.87541507E-05    3
 2.39695783E-08-5.22593457E-12-4.51374996E+04-5.70910895E+00                   4
!!!!!!!!!!!!!!!!!!!!!!!!!!!!!!!!!!!!!!!!!!!!!!!!!!!!!!!!!!!!!!!!!!!!!!!!!!!!!!!!!!!!!!!!!!!!!!!!!!!
!
!--- for TMM, via DMM ---
CH3OCOOCH3 6/24/ 2 thermC   3H   6O   3    0G   300.000  5000.000 1357.000    41 !\AUTHOR: !\REF: P.A. Glaude, Proc. Combust. Inst. 30 1095-1102 2004 !\COMMENT: DMC mech,
 1.60408721e+01 1.42408876e-02-5.07329565e-06 8.09390848e-10-4.78587508e-14    2
-7.60473946e+04-5.76499848e+01 4.02388117e+00 3.45950235e-02-1.43398663e-05    3
 2.96058007e-10 7.61075228e-13-7.10716030e+04 9.68216722e+00                   4
CH3OCOOCH2 5/ 2/ 3      C   3H   5O   3    0G   300.000  5000.000 1359.000    41 !\AUTHOR: !\REF: P.A. Glaude, Proc. Combust. Inst. 30 1095-1102 2004 !\COMMENT: DMC mech,
 1.62215466e+01 1.14589454e-02-4.09504191e-06 6.54687228e-10-3.87676491e-14    2
-5.14173664e+04-5.61931004e+01 5.25320762e+00 3.15638586e-02-1.56826806e-05    3
 2.31651673e-09 2.18000350e-13-4.70375988e+04 4.70664265e+00                   4
CH3OCOOH   6/24/ 2 THERMC   2H   4O   3    0G   300.000  5000.000 1371.000    31 !\AUTHOR: !\REF: P.A. Glaude, Proc. Combust. Inst. 30 1095-1102 2004 !\COMMENT: DMC mech,
 1.26391477e+01 9.70490594e-03-3.46053136e-06 5.52439498e-10-3.26800648e-14    2
-7.71772561e+04-4.19182716e+01 2.05396450e+00 3.20839169e-02-2.08608292e-05    3
 6.45350667e-09-7.67770261e-13-7.32505021e+04 1.57934541e+01                   4
CH3OCOO    5/ 2/ 3      C   2H   3O   3    0G   300.000  5000.000 1365.000    21 !\AUTHOR: !\REF: P.A. Glaude, Proc. Combust. Inst. 30 1095-1102 2004 !\COMMENT: DMC mech,
 1.17190563e+01 8.34954108e-03-2.99011141e-06 4.78717454e-10-2.83758708e-14    2
-4.67506453e+04-3.66252599e+01 2.02678400e+00 2.79432002e-02-1.67731816e-05    3
 4.22534916e-09-2.87871157e-13-4.30953264e+04 1.64864589e+01                   4
CH2OCOOH   5/ 8/ 3      C   2H   3O   3    0G   300.000  5000.000 1378.000    31 !\AUTHOR: !\REF: P.A. Glaude, Proc. Combust. Inst. 30 1095-1102 2004 !\COMMENT: DMC mech,
 1.27836630e+01 6.93507421e-03-2.48201264e-06 3.97205696e-10-2.35374866e-14    2
-5.25091758e+04-4.02086228e+01 3.20884348e+00 2.96901005e-02-2.34550186e-05    3
 9.34824624e-09-1.51504687e-12-4.92132050e+04 1.10953420e+01                   4
!
!!!!!!!!!!!!!!!!!!!!!!!!!!!!!!!!!!!!!!!!!!!!!!!!!!!!!!!!!!!!!!!!!!!!!!!!!!!!!!!!!!!!!!!!!!!!!!!!!!!
!!!	PRESENT WORK										!!!
!!!	=> CH3OCOCH3 thermochemistry								!!!
CH3OCOCH3          HGD  c   3h   6o   2n   0g    200.00  3000.00  1000.00      1 ! 11.03 % max.err. / CO[C]OC
 2.24245239e+00 3.28472801e-02-1.69543269e-05 4.21136288e-09-4.14091563e-13    2
-2.16723501e+04 1.67778440e+01 6.79169606e+00-2.59552814e-03 7.06666245e-05    3
-8.40064303e-08 3.10291965e-11-2.19468619e+04-1.47517029e+00                   4
!!!!!!!!!!!!!!!!!!!!!!!!!!!!!!!!!!!!!!!!!!!!!!!!!!!!!!!!!!!!!!!!!!!!!!!!!!!!!!!!!!!!!!!!!!!!!!!!!!!
!
END
