!This mechanism is supplementary material to the work of 
!Authors:Krishna Prasad Shrestha, Charles Lhuillier, Amanda Alves Barbosa, Pierre Brequigny, Francesco Contino, Christine Mounaïm-Rousselle, Lars Seidel, Fabian Mauss
!Title: An experimental and modeling study of ammonia with enriched oxygen content and ammonia/hydrogen laminar flame speed at elevated pressure and temperature
!Proc. Combust. Inst. 38, 2020, https://doi.org/10.1016/j.proci.2020.06.197
! Corresponding Authors: Lars seidel, e-mail: lars.seidel@logesoft.com
!                        Krishna Prasad Shrestha, e-mail: shrestha@b-tu.de, ORCID: 0000-0001-5672-7354
!------------------------------------------------------------------------------------
!This mechanism is based on our previous work
!Detailed Kinetic Mechanism for the Oxidation of Ammonia Including the Formation and Reduction of Nitrogen Oxides
!Energy & Fuels 2018, 32, 10,10202-10217 / https://doi.org/10.1021/acs.energyfuels.8b01056
!Improvement has been made in this mechanism mainly targeting NH3 and NH3/H2 flame
!Some formating issues has also been fixed
!------------------------------------------------------------------------------------
!This mechanism is also validated for following fuels and mixtures
! H2, H2/CO, NH3, NH3/H2, H2/N2O, H2/NO2, CO/NO, CO/NO2, CO/N2O, CH4, CH3OH, CH2O
! CH4/NO, CH4/NO2, CH4/N2O, HCN, CH3OH/NO
ELEMENTS
  C  H  O  N  AR  HE
END
SPECIES 
AR
HE
N2
H
O
OH
H2
O2
HO2
H2O2
H2O
OH*
CO
CO2
HCO
CH2O
CH
C
CH2-3
CH2-1
C2H2
CH3
CH4
HOCHO
CH2OH
OCHO
CH3O
C2H4
CH2CO
C2H6
CH3OH
CH3O2
CH3O2H
C2H3
C2H5
C2H5OH
C2H5O
CH3CHO
CH3CO
CH2O2H
C2H
C2
C2O
HCCO
H2CC
!
C3H3
C4H2
C3H5
CH2CHO
C2H3OO
HCCOH
C4H4
C2H2OH
C2H3CHO
C3H4O
CHCHO
CHOCHO
CHOCO
CH3CO2
CH3CO3
CH3CO3H
C3H6
C3H8
I-C3H7
N-C3H7
C3H4
C3H4P
CH2CHOH
CH3CHOH
CH2CH2OH
C2H5O2
C2H4O1-2
C2H5O2H
C2H5CHO
C2H5CO
C2H4O2H
C2H3O1-2
CH3OCH3-DME
CH3OCH2
CH3OCH2O2
CH3OCH2O2H
CH3OCH2O
CH3OCHO
CH2OCHO
CH3OCO
CH2OCH2O2H
O2CH2OCH2O2H
HO2CH2OCHO
OCH2OCHO
HOCH2OCO
HOCH2O
CH*
!Nitrogen Species
N
NO
N2O
NO2
NH
NH2
NH3
HNO
HONO
H2NO
NNH
N2H2
N2H3
N2H4
H2NN
HNOH
NH2OH
HNO2
NO3
HONO2
CN
HCN
HCNO
NCN
HNC
HNCN
H2CN
C2N2
HOCN
HNCO
NCO
HON
HCNH
END
REACTIONS
!--------------------------H2-O2  MECHANISM-------------------------------------
!R1
 O2+H=OH+O                                       1.800E+14   -0.097  1.503E+04 ! Baulch 2005 A/2.065E+14 error (+/-0.1-0.2) 800-3500 K
!R2                                                                            !
 O+H2=H+OH                                       3.000E+12    0.00   7.963E+03 ! Baulch 2005 A/3.817E+12 error (+/-0.2)
 DUPLICATE                                                                     !
 O+H2=H+OH                                       8.000E+14    0.00   1.918E+04 ! Baulch 2005 A/8.792E+14 error (+/-0.2)
 DUPLICATE                                                                     !
!R3                                                                            !
 OH+H2=H+H2O                                     2.167E+08    1.52   3.460E+03 ! Baulch 2005 A/2.167E+08 error (+/-0.1-0.3) 250-2500 K
!R4                                                                            !
 OH+OH=H2O+O                                     4.000E+04    2.42  -1.928E+03 ! Baulch 2005 A/3.3480E+4 error (+/-0.15) 250-2400 K
!R5                                                                            !
 H+H+M=H2+M                                      2.300E+18   -1.00   0.000E+00 ! Baulch 2005 M=N2 A/2.300E+18 error (+/-0.5) 200-2500K
 H2/1.0/H2O/6.40/CO2/1.50/O2/0.45/N2/0.40/AR/0.35/HE/0.35/CO/0.75/CH4/3.0/     ! Griffith & Barnard
!R6                                                                            !
 O+O+M=O2+M                                      2.900E+17   -1.00   0.000E+00 ! N. Peters 1992 M=N2
 H2/1.0/H2O/6.40/CO2/1.50/O2/0.45/N2/0.40/AR/0.35/HE/0.35/CO/0.75/CH4/3.0/     ! Griffith & Barnard
!R7! This reaction is not included in Baulch et al. 2005 work.                 !
 O+H+M=OH+M                                      9.436E+18   -1.00   0.000E+00 ! Li 2015 M=N2
 H2/1.0/H2O/6.40/CO2/1.50/O2/0.45/N2/0.40/AR/0.35/HE/0.35/CO/0.75/CH4/3.0/     ! Griffith & Barnard
!R8                                                                            !
 H+OH+M=H2O+M                                    4.000E+22   -2.00   0.000E+00 ! Baulch 2005 M=N2 A/2.212E+22 error (+/-0.5) 300-3000 K
 H2/1.0/H2O/6.40/CO2/1.50/O2/0.45/N2/0.40/AR/0.35/HE/0.35/CO/0.75/CH4/3.0/     ! Griffith & Barnard
!R9                                                                            !
 H+O2(+M)=HO2(+M)                                5.590E+13    0.20   0.000E+00 ! Hong 2010
 LOW / 3.500E+19    -1.300       0.000E+00/                                    !
 TROE /0.70 1.0E-30 1.0E+30 1.0E+30/                                           !
 H2/2.5/ H2O/0.00/ H2O2/12.0/ AR/0.00/ O2/0.00/                                !
 H+O2(+AR)=HO2(+AR)                              5.590E+13    0.20   0.000E+00 ! Hong 2010
 LOW / 6.810E+18    -1.200       0.000E+00/                                    !
 TROE /0.70 1.0E-30 1.0E+30 1.0E+30/                                           !
 H+O2(+O2)=HO2(+O2)                              5.590E+13    0.20   0.000E+00 ! Hong 2010
 LOW /5.690E+18    -1.100       0.000E+00/                                     !
 TROE /0.70 1.0E-30 1.0E+30 1.0E+30/                                           !
 H+O2(+H2O)=HO2(+H2O)                            5.590E+13    0.20   0.000E+00 ! Hong 2010
 LOW /3.700E+19    -1.000       0.000E+00/                                     !
 TROE /0.80 1.0E-30 1.0E+30 1.0E+30/                                           !
!R10                                                                           !
 H+HO2=H2+O2                                     4.660E+06    2.087 -1.450E+03 ! Hong 2010, J.V. Michael et al. 2000
!R11                                                                           !
 H+HO2=OH+OH                                     7.080E+13    0.00   3.000E+02 ! Burke 2012 cited Mueller et. al.Inc. IJCK 31: 113-125, 1999
!R12                                                                           !
 O+HO2=OH+O2                                     1.630E+13    0.00  -4.452E+02 ! Baulch 2005 error (+/-0.1;220K -+/-0.5; 1000K)
!R12b                                                                          !
 O+OH+M=HO2+M                                    1.600E+16    0.00   0.000E+00 ! Sandiego 2014
 H2/1.0/H2O/6.40/CO2/1.50/O2/0.45/N2/0.40/AR/0.35/HE/0.35/CO/0.75/CH4/3.0/     ! Griffith & Barnard
!R12c                                                                          !
 H2+O2=OH+OH                                     1.700E+13    0.00   4.778E+04 ! Dayma 2006 cited Miller, J.A. and Kee, R.J. (1977)
!R13                                                                           !
 HO2+OH=H2O+O2                                   7.000E+12    0.00  -1.093E+03 ! Hong 2013
 DUPLICATE                                                                     !
 HO2+OH=H2O+O2                                   4.500E+14    0.00   1.093E+04 ! Hong 2013
 DUPLICATE                                                                     !
!R14                                                                           !
 HO2+HO2=H2O2+O2                                 4.220E+14    0.00   1.198E+04 ! Baulch 2005 cited Hippler 1990 error (+/-0.15; 550-800 K)-error (+/-0.4; 1250 K) 550-1250 K
 DUPLICATE                                                                     ! 
 HO2+HO2=H2O2+O2                                 1.320E+11    0.00  -1.630E+03 ! Hong 2011
 DUPLICATE                                                                     !
!R15                                                                           !
 H2O2(+M)=OH+OH(+M)                              2.000E+12    0.90   4.877E+04 ! Troe, Combustion and Flame 158 (2011) 594-601. 
 LOW /3.660E+24   -2.3   4.877E+04 /                                           !
 TROE /0.43   1E-30   1E+30/                                                   !
 H2O/5.1/H2O2/5.2/H2/2.5/O2/0.79/N2/1.0/AR/0.68/HE/0.44/CO2/1.06/CO/0.53/      !
!R16                                                                           !
 H2O2+H=H2O+OH                                   1.023E+13    0.00   3.586E+03 ! Baulch 2005 A/1.020E+13 error(+/-0.3) 300-1000 K
!R17                                                                           !
 H2O2+H=HO2+H2                                   1.210E+07    2.00   5.200E+03 ! Hong 2010
!R18                                                                           !
 H2O2+O=OH+HO2                                   9.630E+06    2.00   3.993E+03 ! SanDiego 2014 cited TSA86 error(factor 3) 300-2500 K 
!R19                                                                           !
 H2O2+OH=H2O+HO2                                 1.740E+12    0.00   3.180E+02 ! Hong 2010; J.Phys.Chem. A 114(2010)5718-5727. (280<T<1640K)
 DUPLICATE                                                                     !
 H2O2+OH=H2O+HO2                                 7.590E+13    0.00   7.269E+03 !
 DUPLICATE                                                                     !
!R19b                                                                          !
 H2O2+O=H2O+O2                                   8.430E+11    0.00   3.976E+03 ! Baulch 2005 283-500 K
!R19c                                                                          !
 H2O+O=H2+O2                                     1.070E+10    0.97   6.870E+04 ! Burke 2012 cited Karkach 1999
!-----------------------CO/CO2 MECHANISM---------------------------------------
!R20
 CO+O(+M)=CO2(+M)                                1.800E+10    0.00   2.384E+03 ! Davis 2005 cited Troe, J phys chem 1975, 83, 114
 LOW/ 1.550E+24   -2.79  4.185E+03  /                                          ! Davis 2005 cited Muller 1999 cited Westmoreland et al. AIChE J. 32(1986)1971-1979
 H2/1.0/H2O/6.40/CO2/1.50/O2/0.45/N2/0.40/AR/0.35/HE/0.35/CO/0.75/             ! Griffith & Barnard ! this reaction taken from Davis and using our efficiency and calibrating it
!R21                                                                           !
 CO+O2=CO2+O                                     2.500E+12    0.00   4.782E+04 ! Warnatz 2006
!R22                                                                           !
 CO+OH=CO2+H                                     1.000E+13    0.00   1.600E+04 ! Baulch 2005 A/1.0E+13 error(+/-0.1)
 DUPLICATE                                                                     !
 CO+OH=CO2+H                                     9.000E+10    0.00   5.978E+01 ! Baulch 2005 A/1.01E+11 error(+/-0.1)
 DUPLICATE                                                                     !
 CO+OH=CO2+H                                     9.030E+11    0.00   4.567E+03 ! Baulch 2005 A/9.03E+11 error(+/-0.1)
 DUPLICATE                                                                     !
!R23                                                                           !
 CO+HO2=CO2+OH                                   1.570E+05    2.18   1.794E+04 ! Li 2015
!R24                                                                           !
 HCO(+M)=H+CO(+M)                                4.930E+16   -0.93   1.973E+04 ! Varga 2016
 LOW /4.942E+10    0.959      1.467E+04  /                                     !
 TROE /8.52E-01  5.14E+01  3.57E+03  3.42E+03 /                                !
 H2/2/ O2/1/ AR/0.55/ HE/0.786/ H2O/12/ CO/1.5/ CO2/2/                         !
!R26                                                                           !
 HCO+O2=CO+HO2                                   3.000E+10    0.68  -4.691E+02 ! Baulch 2005 A/2.71E+10 error (+/-0.15-0.5)
!R27                                                                           !
 HCO+H=CO+H2                                     7.00E+13     0.00   0.000E+00 ! Baulch 2005 A/9.03E+13 error(+/-0.3) 298-2500K
!R28                                                                           !
 HCO+O=CO+OH                                     3.01E+13     0.00   0.000E+00 ! Baulch 2005 A/3.01E+13 error (+/-0.3)300-2500 K
!R29                                                                           !
 HCO+O=CO2+H                                     3.01E+13     0.00   0.000E+00 ! Baulch 2005 A/3.01E+13 error(+/-0.3) 300-2500 K
!R30                                                                           !
 HCO+OH=CO+H2O                                   1.080E+14    0.00   0.000E+00 ! Baulch 2005 A/1.080E+14 error(+/-0.3) 296-2500 K
!R31                                                                           !
 HCO+HO2=>CO2+H+OH                               3.00E+13     0.00   0.000E+00 ! Vagra 2016 cited TSA86
!R32                                                                           !
 HCO+HCO=>H2+CO+CO                               3.00E+12     0.00   0.000E+00 ! Baulch 2005 also used by Konnov 2008/Sun 2007/Vagra 2016 
!R33                                                                           !
 HCO+HCO=CH2O+CO                                 2.70E+13     0.00   0.000E+00 ! NIST (Squib: 2002FRI/HER5778-5788)
!R36                                                                           !
 HCO+HO2=H2O2+CO                                 3.00E+12     0.00   0.000E+00 ! Konnov 2008 cited TSA86
!------------------------------------------------------------------------------
!--------------------------C REACTIONS-----------------------------------------
!------------------------------------------------------------------------------
 CH+H=C+H2                                       8.000E+13    0.00   0.000E+00 ! Baulch 2005 A/1.204E+14 error (+/-0.6) 1500-2500K
 C+O2=O+CO                                       8.786E+13    0.0    6.360E+02 ! Baulch 2005 A/6.624E+13 error (+/-0.15-0.5 )
 C+OH=CO+H                                       5.000E+13    0.00   0.000E+00 ! Aramco 2.0
!------------------------------------------------------------------------------
!----------------------CH REACTIONS--------------------------------------------
!------------------------------------------------------------------------------
 CH+O=H+CO                                       2.000E+13    0.00   0.000E+00 ! Baulch 2005 A/3.974E+13      error(+/-0.5)
 CH+CO2=HCO+CO                                   3.191E+07    1.51  -7.150E+02 ! Baulch 2005 A/6.383E+07(50%) error(+/-0.15-0.3) 296-3500K
 CH+CO2=CO+CO+H                                  3.191E+07    1.51  -7.150E+02 ! Baulch 2005 A/6.383E+07(50%) error(+/-0.15-0.3) 296-3500K
 CH+H2O=OH+CH2-3                                 2.285E+16   -1.42   0.000E+00 ! Baulch 2005 A/4.570E+16(50%) error(+/-0.5-1.0)  290-1000K
 CH+H2O=H+CH2O                                   2.285E+16   -1.42   0.000E+00 ! Baulch 2005 A/4.570E+16(50%) error(+/-0.5-1.0)  290-1000K
 CH+O2=O+HCO                                     1.000E+13    0.00   0.000E+00 ! Baulch 2005 A/2.408E+13(20%) error(+/-0.3-0.5)  290-800K
 CH+O2=CO+OH                                     1.000E+13    0.00   0.000E+00 ! Baulch 2005 A/2.408E+13(20%) error(+/-0.3-0.5)  290-800K
 CH+O2=CO2+H                                     1.500E+13    0.00   0.000E+00 ! Baulch 2005 A/2.408E+13(30%) error(+/-0.3-0.5)  290-800K
 CH+O2=CO+H+O                                    1.500E+13    0.00   0.000E+00 ! Baulch 2005 A/2.408E+13(30%) error(+/-0.3-0.5)  290-800K
 CH+OH=H+HCO                                     3.000E+13    0.00   0.000E+00 ! MIL89
!------------------------------------------------------------------------------
!-------------------------CH2-3 REACTIONS-------------------------------------- 
!------------------------------------------------------------------------------
 CH2-3+H=CH+H2                                   3.000E+13    0.00   0.000E+00 ! Baulch 2005 ! A/1.204E+14 ! T:298-3000 K!error(+/-0.3-1.0) ! important in CH4 flame speed 
 CH2-3+O2=>CO+OH+H                               1.200E+11    0.00   0.000E+00 ! 1.200E+11/Baulch 2005 !scaling the branching ratio /1.806E+11
 CH2-3+O2=CO2+H2                                 4.500E+11    0.00   0.000E+00 ! Baulch 2005
 CH2-3+O2=CO+H2O                                 1.800E+12    0.00   0.000E+00 ! Baulch 2005
 CH2-3+O2=CH2O+O                                 1.000E+11    0.00   0.000E+00 ! Baulch 2005
 CH2-3+O2=>CO2+H+H                               2.000E+12    0.00   1.000E+03 ! Hidaka 1996
 CH2-3+CH2-3=C2H2+H2                             1.806E+14    0.00   1.192E+04 ! Baulch 2005 error(+/-0.5)
 CH2-3+CH2-3=C2H2+H+H                            1.625E+15    0.00   1.192E+04 ! Baulch 2005 A/1.625E+15 error(+/-0.5)
 CH2-3+O2=HCO+OH                                 1.000E+11    0.00   0.000E+00 ! Baulch 2005
 CH2-3+OH=CH2O+H                                 2.800E+13    0.123 -1.610E+02 ! Wang 2017 cited JAS/KLIPP/HAR, JPCA 111 (2007) 8699-8707.
 CH2-3+O=>CO+H+H                                 8.000E+13    0.00   0.000E+00 ! SanDiego 2014
 CH2-3+O=CO+H2                                   4.000E+13    0.00   0.000E+00 ! SanDiego 2014
 CH2-3+M=C+H2+M                                  3.011E+14    0.00   6.480E+04 ! Baulch 2005 error(+/-0.7-0.4) 1700-4000 K
 H2/1.0/H2O/6.40/CO2/1.50/O2/0.45/N2/0.40/AR/0.35/HE/0.35/CO/0.75/CH4/3.0/     ! Griffith & Barnard
 CH2-3+M=CH+H+M                                  9.394E+15    0.00   8.922E+04 ! Baulch 2005 error(+/-0.7-0.4) 1700-4000 K
 H2/1.0/H2O/6.40/CO2/1.50/O2/0.45/N2/0.40/AR/0.35/HE/0.35/CO/0.75/CH4/3.0/     ! Griffith & Barnard
 CH2-3+CH=C2H2+H                                 4.000E+13    0.00   0.000E+00 ! GLA/MILL CF 65:177 1986
 CH2-3+CO2=CH2O+CO                               1.000E+11    0.00   1.000E+03 ! GLA/MILL CF 65:177 1986
 CH2-3+HO2=CH2O+OH                               2.000E+13    0.00   0.000E+00 ! GRI 3.0 
!------------------------------------------------------------------------------
!-------------------------CH2-1 REACTIONS--------------------------------------
!------------------------------------------------------------------------------
 CH2-1+M=CH2-3+M                                 1.200E+13    0.00   4.711E+02 ! Baulch 2005 A/1.204E+13 M=N2 error(+/-0.2-0.3) 200-1000 K  
 H2/1.0/H2O/6.40/CO2/1.50/O2/0.45/N2/0.40/AR/0.35/HE/0.35/CO/0.75/CH4/3.0/     ! Griffith & Barnard
 CH2-1+H2=CH3+H                                  5.420E+13    0.00   0.000E+00 ! Baulch 2005 A/6.022E+13 (90%)error(+/-0.1-0.3) 298-2100 K 
 CH2-1+H2=CH2-3+H2                               6.022E+12    0.00   0.000E+00 ! Baulch 2005 A/6.022E+13 (10%)error(+/-0.3) 200-1000
 CH2-1+O2=H+OH+CO                                3.130E+13    0.00   0.000E+00 ! Baulch 2005 A/3.130E+13  error(+/-0.3)
 CH2-1+O2=CH2-3+O2                               3.131E+13    0.00   0.000E+00 ! Baulch 2005 ! error (+/-0.3 - 0.5) !300-1000 K
 CH2-1+OH=H+CH2O                                 3.000E+13    0.00   0.000E+00 ! Sandiego 2014
 CH2-1+CO2=CO+CH2O                               3.000E+12    0.00   0.000E+00 ! Sandiego 2014
!------------------------------------------------------------------------------
!---------------------------CH2O REACTIONS-------------------------------------
!------------------------------------------------------------------------------
 CH2O+H=HCO+H2                                   4.100E+08    1.47   2.440E+03 ! Baulch 2005 A/4.100E+08 error(+/-0.1-0.5) 290-2500 K
 CH2O+OH=HCO+H2O                                 1.391E+13    0.00   6.040E+02 ! Baulch 2005 A/1.738E+13 error(+/-0.1-0.3) 300-1500 K
 CH2O+O=HCO+OH                                   4.155E+11    0.57   2.771E+03 ! Baulch 2005 A/5.413E+11 error(+/-0.1)
 CH2O+O2=HCO+HO2                                 2.438E+05    2.50   3.648E+04 ! Baulch 2005 A/4.438E+05 error(+/-0.3-0.5)
 CH2O+HO2=H2O2+HCO                               4.095E+04    2.50   1.021E+04 ! Baulch 2005 A/4.095E+04 error(+/-0.2-0.4)
 CH2O+CH3=CH4+HCO                                3.191E+01    3.36   4.314E+03 ! Baulch 2005 A/3.191E+01 error(+/-0.2) 300-2000 K
 CH2O+M=HCO+H+M                                  3.300E+39   -6.30   9.990E+04 ! Friedrichs 2004 A/3.300E+39
 AR/0.7/H2/2.0/CO/1.5/CH2O/3.0/                                                !
 CH2O+M=CO+H2+M                                  3.100E+45   -8.00   9.750E+04 ! Friedrichs 2004 A/3.100E+45
 AR/0.7/H2/2.0/CO/1.5/CH2O/3.0/                                                !
!------------------------------------------------------------------------------
!------------HOCHO REACTIONS Formic acid --------------------------------------!
!------------------------------------------------------------------------------
 HOCHO(+M)=CO+H2O(+M)                            7.500E+14    0.00   6.871E+04 ! Chang et al. JPCA 111 (2007) 6789-6797
 LOW  /4.100E+15  0.00  5.298E+04/                                             !
 HOCHO(+M)=CO2+H2(+M)                            4.500E+13    0.000  6.824E+04 ! Chang et al. JPCA 111 (2007) 6789-6797
 LOW  /1.700E+15  0.00  5.111E+04/                                             !
 CH2OH+HO2=HOCHO+H2O                             3.600E+12   0.12    4.540E+02 ! Zhang 2017 cited Mousavipour, JPCA 2011,115,3291
 CH2O+OH=HOCHO+H                                 7.170E+05   1.83   -1.117E+03 ! Zhang 2017 cited Christensen, E&Fuels 2016,30,6709-6726
 HOCHO+OH=CO+H2O+OH                              1.850E+07    1.50  -9.620E+02 ! Leplat 2011 cited Marinov 1999
 HOCHO+H=CO2+H2+H                                4.240E+06    2.10   4.868E+03 ! Leplat 2011 cited Marinov 1999
 HOCHO+H=CO+H2+OH                                6.060E+13   -0.35   2.988E+03 ! Leplat 2011 cited Marinov 1999
 HOCHO+CH3=CH4+CO+OH                             3.900E-07    5.80   2.200E+03 ! Leplat 2011 cited Marinov 1999
 HOCHO+O=CO+OH+OH                                1.770E+18   -1.90   2.975E+03 ! Leplat 2011 cited Marinov 1999
 HOCHO+HO2=>H2O2+CO+OH                           1.000E+12    0.00   1.192E+04 ! Marinov 1999
!---------OCHO related to the HOCHO -------------------------------------------!
 OCHO+O2=CO2+HO2                                 5.000E+13   0.000   0.000E+00 !
!------------------------------------------------------------------------------
!-------------------------CH3 REACTIONS----------------------------------------
!------------------------------------------------------------------------------
 CH3+M=CH2-3+H+M                                 1.900E+16    0.00   9.065E+04 ! Baulch 2005 A/1.0237E+16 error (+/-0.5) 1500-3500 K
 H2/1.0/H2O/6.40/CO2/1.50/O2/0.45/N2/0.40/AR/0.35/HE/0.35/CO/0.75/CH4/3.0/     ! Griffith & Barnard
 CH3+M=CH+H2+M                                   6.624E+15    0.00  8.508E+04  ! Baulch  2005 A/6.624E+15 error (+/-0.5) 1500-3500 K
 H2/1.0/H2O/6.40/CO2/1.50/O2/0.45/N2/0.40/AR/0.35/HE/0.35/CO/0.75/CH4/3.0/     ! Griffith & Barnard
 CH3+O=CH2O+H                                    6.74E+13     0.00   0.000E+00 ! Baulch 2005 A/6.74E+13  error(+/-0.1) 300-2500K
 CH3+O=>H+CO+H2                                  2.686E+13    0.00   0.000E+00 ! Baulch 2005 A/1.686E+13 error(+/-0.1)
 CH3+O2=CH2O+OH                                  1.90E+11     0.00   9.842E+03 ! Srinivasan et al. JPCA 109:7902-7914 2005
 CH3+O2=CH3O+O                                   7.50E+12     0.00   2.829E+04 ! Srinivasan et al. JPCA 109:7902-7914 2005
 CH3+HO2=CH3O+OH                                 8.000E+12    0.00   0.000E+00 ! Baulch 2005 A/1.806E+13 error(+/-1.0) 600-1200K
 CH2-3+H2=CH3+H                                  4.400E+05    2.39   7.350E+03 ! Lu et al., J. Phys. Chem. A 2010, 114, 5493-5502
 CH3+CH2-3=C2H4+H                                3.500E+13    0.00   0.000E+00 ! Baulch 2005 A/3.500E+13 error(+/-0.3-0.7) 298-3000 K
 CH3+H(+M)=CH4(+M)                               6.925E+13    0.18   0.000E+00 ! Bierkandt 2015
 LOW /   3.800E+39   -6.564    6744. /                                         !
 TROE /  0.7   10063.0   456.1/                                                !
 H2/1.0/H2O/6.40/CO2/1.50/O2/0.45/N2/0.40/AR/0.35/HE/0.35/CO/0.75/CH4/3.0/     ! Griffith & Barnard
 CH3+CH3=C2H4+H2                                 1.419E+12    0.00   1.606E+04 ! Baulch 2005  error (+/-0.3)
 CH3+HCO=CH4+CO                                  1.800E+20   -2.30   4.781E+03 ! Hashemi 2017 cited Sivaramakrishnan et al., J Phys Chem A 2015, 119, 7724-7733
 PLOG/ 5.00E-02                      2.9E18  -1.840    2134/                   !
 PLOG/ 1.00E-01                      8.7E18  -1.970    2684/                   !
 PLOG/ 1.00E+00                      1.8E20  -2.300    4781/                   !
 PLOG/ 1.00E+01                      1.1E21  -2.450    7417/                   !
 CH3+HCO=CH2CO+H2                                4.900E+08     0.75   8.420E+02! Hashemi 2017 cited Sivaramakrishnan et al., J Phys Chem A 2015, 119, 7724-7733
 PLOG/ 5.00E-02                      6.1E06   1.240   -1733/                   !
 PLOG/ 1.00E-01                      1.1E07   1.180   -1303/                   !
 PLOG/ 1.00E+00                      4.9E08   0.750     842/                   !
 PLOG/ 1.00E+01                      1.6E11   0.109    4387/                   !
 CH3+CH3(+M)=C2H6(+M)                            3.613E+13    0.00   0.000E+00 ! Baulch 2005 A/3.613E+13 error(+/-0.3)
 LOW/3.00E+41   -7.0    2.762E+03/                                             ! A(Ar)1.269E+41 error(+/-0.3)
 TROE/  0.62  73.0  1180.0 /                                                   ! Fc 0.62 !error (+/-0.1)
 H2/1.0/H2O/6.40/CO2/1.50/O2/0.45/N2/0.40/AR/0.35/HE/0.35/CO/0.75/CH4/3.0/     ! Griffith & Barnard
!
!--------------CH3+OH Reactions ------------------------------------------------
 CH3+OH=CH2-1+H2O                                4.936E+014    -0.669    -445.8 ! JASPER/KLIPP,J.PHYS.CHEM A, 2007, 111,19,3932-3950
 PLOG/      0.010     4.936E+14    -0.669      -445.8/                          !
 PLOG/      0.100     1.207E+15    -0.778      -175.6/                          !
 PLOG/      1.000     5.282E+17    -1.518      1772.0/                          !
 PLOG/     10.000     4.788E+23    -3.155      7003.0/                          !
 PLOG/    100.000     8.433E+19    -1.962      8244.0/                          !
 CH3+OH=CH2O+H2                                  3.502E+005     1.441   -3244.0 ! JASPER/KLIPP,J.PHYS.CHEM A, 2007, 111,19,3932-3950
 PLOG/      0.010     3.502E+05     1.441     -3244.0/                          !
 PLOG/      0.100     8.854E+05     1.327     -2975.0/                          !
 PLOG/      1.000     1.650E+07     0.973     -2010.0/                          !
 PLOG/     10.000     5.374E+09     0.287       280.0/                          !
 PLOG/    100.000     9.494E+18    -2.199      9769.0/                          !
 CH3+OH=CH2OH+H                                  1.621E+010     0.965    3210.0 ! JASPER/KLIPP,J.PHYS.CHEM A, 2007, 111,19,3932-3950
 PLOG/      0.010     1.621E+10     0.965      3214.0/                          !
 PLOG/      0.100     1.807E+10     0.950      3247.0/                          !
 PLOG/      1.000     4.686E+10     0.833      3566.0/                          !
 PLOG/     10.000     1.525E+13     0.134      5641.0/                          !
 PLOG/    100.000     3.590E+14    -0.186      8601.0/                          !
 CH3+OH=CH3O+H                                   1.186E+009     1.016   11940.0 ! JASPER/KLIPP,J.PHYS.CHEM A, 2007, 111,19,3932-3950
 PLOG/      0.010     1.186E+09     1.016     11940.0/                          !
 PLOG/      0.100     1.188E+09     1.016     11940.0/                          !
 PLOG/      1.000     1.230E+09     1.011     11950.0/                          !
 PLOG/     10.000     1.798E+09     0.965     12060.0/                          !
 PLOG/    100.000     5.242E+10     0.551     13070.0/                          !
 CH3+OH=CH2-3+H2O                                4.293E+04   2.568   3.997E+03  !
!------------------------------------------------------------------------------
!------------------------------CH3O REACTIONS----------------------------------
!------------------------------------------------------------------------------
 CH3O+M=CH2OH+M                                  1.000E+14    0.00   1.912E+04 ! USC 
 H2/1.0/H2O/6.40/CO2/1.50/O2/0.45/N2/0.40/AR/0.35/HE/0.35/CO/0.75/CH4/3.0/     ! Griffith & Barnard
 CH3O(+M)=CH2O+H(+M)                             9.800E+13    0.00   2.618E+04 ! Baulch 2005 A/6.800E+13 error (+/-0.5) 500-1000K
 LOW  /2.866E+25    -3.0     2.431E+04  /                                      ! A/1.866E+25 error (+/-0.3) 500-1000K 
 TROE /0.9   2.50E+03  1.30E+03  1.00E+99 /                                    ! error (+/-0.1) TROE paramter from Aramco 2.0
 H2/1.0/H2O/6.40/CO2/1.50/O2/0.45/N2/0.40/AR/0.35/HE/0.35/CO/0.75/CH4/3.0/     ! Griffith & Barnard
 CH3O+H=CH2O+H2                                  3.794E+13    0.00   5.960E+02 ! Baulch 2005 A/3.794E+13(70%) error(+/-0.1-0.3)
 CH3O+O=CH2O+OH                                  3.763E+12    0.00   0.000E+00 ! Baulch 2005 A/3.763E+12 error (-0.1 - +0.2)
 CH3O+OH=CH2O+H2O                                1.800E+13    0.00   0.000E+00 ! TSA86
 CH3O+O2=CH2O+HO2                                4.800E-01    3.567 -1.055E+03 ! Aranda et al., IJCK 45 (2013) 283-294.
 CH3O+HO2=CH2O+H2O2                              3.000E+11    0.00   0.000E+00 ! TSA86
 CH3O+CO=CH3+CO2                                 9.500E+25   -4.93   9.080E+03 ! Wang, JPCA 103:8021-8029 1999 (1 bar,200-1000 K)