units(length='cm', time='s', quantity='mol', act_energy='kcal/mol')

ideal_gas(name='gas',
          elements="H C O N Ne Ar He Si S Cl",
          species="""Ar          N2          Ne          He
                     JP10(1)     O2(2)       C(3)        CH(4)
                     C2H(5)      C2H2(6)     CH2CO(7)    HCCOH(8)
                     C2H3(9)     CH3CO(10)   ethene(11)  CH3CHO(12)
                     ETHYL(13)   C2H6(14)    HCCO(15)    C3H8(16)
                     CH2(S)(17)  CH2(18)     CH2O(19)    CH3(20)
                     CH3O(21)    CH2OH(22)   CH4(23)     CH3OH(24)
                     HCO(25)     CO(26)      CO2(27)     H(28)
                     H2(29)      H2O(30)     H2O2(31)    OH(32)
                     OOH(33)     O(34)       H2CC(35)    CH3CO(36)
                     R4(37)      BR1(38)     BR3(39)     BR2(40)
                     R6(41)      R5(42)      R8(43)      MA110(44)
                     C10H16(45)  C10H16(46)  C10H16(47)  C10H16(48)
                     C10H16(49)  JR5BS1(50)  C10H16(51)  JR8BS1(52)
                     JR6BS4(53)  JR8HA1(54)  CPyl(55)    CPD(56)
                     CPDYL(57)   JR4BS(58)   Allyl(59)   C7H10(60)
                     C3H4a(61)   JR6BS5(62)  H2CCCH(63)  C8H11(64)
                     C10H15(65)  C10H15(66)  C10H15(67)  C4H7(68)
                     C6H8(69)    C8H11(70)   C10H14(71)  C4H7J(72)
                     C6H7(73)    C7H10(74)   JR4HA(75)   C6H8JJ(76)
                     C10H16(77)  C10H16(78)  C6H8(79)    C10H16(80)
                     BD(81)      C10H16(82)  C6H10(83)   CPTyl(84)
                     C5H7(85)    C5H9J(86)   C6H8(87)    C10H16(88)
                     C3H2(89)    C10H16(90)  C10H16(91)  C10H16(92)
                     C10H16(93)  C8H12(94)   C8H12(95)   C8H12(96)
                     C8H12(97)   C8H12(98)   C10H16(99)  C5H8(100)
                     S(101)      C5H8(102)   C5H8(103)   C8H12(104)
                     S(105)      C8H12(106)  C8H12(107)  C8H11(108)
                     C5H5(109)   C8H11(110)  C5H6(111)   S(112)
                     C5H6(113)   C7H10(114)  C3H6(115)   C7H10(116)
                     S(117)      R7(118)     S(119)      S(120)
                     S(121)      S(122)      S(123)      S(124)
                     C8H10(125)  C8H10(126)  C8H10(127)  C8H10(128)
                     C8H9J(129)  C8H9J(130)  C8H9J(131)  C8H9J(132)
                     C8H9J(133)  C8H9J(134)  C8H9J(135)  S(136)
                     C8H9J(137)  S(138)      C5H7J(139)  S(140)
                     C6H7J(141)  S(142)      S(143)      S(144)
                     S(145)      C8H11(146)  C6H7(147)   C8H11(148)
                     C5H6a(149)  C8H11(150)  C8H10(151)  CH3O2(152)
                     C8H10(153)  C8H10(154)  C8H10(155)  C8H10(156)
                     C8H10(157)  C8H11(158)  C7H8(159)   C7H8(160)
                     C7H8(161)   C7H8(162)   S(163)      C8H11(164)
                     S(165)      C8H11(166)  S(167)      C7H10(168)
                     C8H11(169)  C7H10(170)  C8H10(171)  C3H5J(172)
                     C6H6(173)   C3H4p(174)  C5H8(175)   C5H7(176)
                     C5H8(177)   C5H8(178)   C8H9J(179)  S(180)
                     C5H7J(181)  S(182)      C5H6(183)   S(184)
                     S(185)      S(186)      C9H13(187)  S(188)
                     C9H13(189)  C9H13(190)  C9H13(191)  C7H9J(192)
                     C7H9J(193)  C7H9J(194)  C7H8(195)   S(196)
                     S(198)      S(199)      S(200)      S(201)
                     S(202)      S(203)      S(204)      S(205)
                     S(206)      S(207)      C8H9J(208)  C5H8(209)
                     C7H9J(210)  C7H9(211)   C7H8(212)   C7H8(213)
                     C7H8(214)   C7H8(215)   BR4(216)    BR5(217)
                     BR7(218)    S(219)      S(220)      S(221)
                     S(222)      S(223)      S(224)      S(225)
                     C8H11(226)  S(227)      C7H8(228)   S(229)
                     C8H11(230)  C8H11(231)  C8H11(232)  C8H11(233)
                     C8H11(234)  C8H11(235)  C8H11(236)  C8H11(237)
                     C6H7(238)   C6H7J(239)  C6H7(240)   C6H6(241)
                     C6H10(242)  C8H10(243)  C6H8(244)   C6H7(245)
                     C6H8(246)   C6H8(247)   C7H8(248)   C7H8(249)
                     S(250)      S(251)      C3H7J(252)  C7H7(253)
                     C7H7J(254)  C7H7J(255)  S(256)      S(257)
                     S(258)      S(259)      S(260)      C5H8(261)
                     S(262)      S(263)      C8H11(264)  C8H11(265)
                     C8H11(266)  C8H11(267)  C8H11(268)  C8H11(269)
                     C7H9J(270)  C7H9J(271)  C3H7J(272)  C6H5(273)
                     C7H9J(274)  C7H9J(275)  C6H6(276)   C6H6(277)
                     C6H6(278)   C6H6(279)   S(280)      S(281)
                     C8H8(282)   C5H6(283)   C5H6(284)   C8H11(285)
                     C8H11(286)  C8H11(287)  C8H11(288)  C8H11(289)
                     C8H11(290)  C7H9J(291)  C7H9J(292)  S(293)
                     C6H9(294)   C9H11(295)  C9H8(296)   C9H7(297)
                     C6H6(298)   C7H7J(299)  C7H9J(300)  C6H6(301)
                     C5H9J(302)  C6H8(303)   C6H8(304)   C6H8(305)
                     C6H8(306)   C6H8(307)   C6H9J(308)  C6H9J(310)
                     C6H7J(311)  C6H7J(312)  S(313)      S(314)
                     S(315)      S(316)      S(317)      S(318)
                     S(319)      S(320)      S(321)      S(322)
                     S(323)      S(324)      S(325)      S(326)
                     S(327)      S(328)      S(329)      S(330)
                     S(331)      C6H9J(332)  C6H9J(333)  C6H9J(334)
                     C6H9J(335)  C6H9J(336)  C7H9J(337)  C7H9J(338)
                     C7H9J(339)  C7H9J(340)  S(341)      S(342)
                     S(343)      S(344)      S(345)      S(346)
                     C8H11(347)  C5H5(348)   C6H9J(349)  C8H8(350)
                     C3H5J(351)  C8H11(352)  C9H9J(353)  C9H9J(354)
                     C9H9J(355)  S(356)      C9H9J(357)  C9H9J(358)
                     C9H9J(359)  C9H9J(360)  C9H9J(361)  C9H9J(362)
                     C9H9J(363)  C9H9J(364)  C9H9J(365)  C4H9J(366)
                     C9H9J(367)  C9H9J(368)  C9H9J(369)  C8H8(370)
                     C8H8(371)   C8H8(372)   C8H8(373)   C8H8(374)
                     C8H8(375)   C8H8(376)   C8H8(377)   C8H8(378)
                     C8H8(379)   C8H8(380)   C8H8(381)   C8H8(382)
                     C8H8(383)   C8H8(384)   C8H8(385)   C8H8(386)
                     C8H8(387)   C8H8(388)   C8H8(389)   C8H8(390)
                     C8H8(391)   C8H8(392)   C8H8(393)   C8H8(394)
                     C8H8(395)   C8H8(396)   C8H8(397)   C8H8(398)
                     C8H8(399)   C8H8(400)   C8H8(401)   C8H8(402)
                     C8H8(403)   C8H8(404)   C8H8(405)   C8H8(406)
                     C8H8(407)   C8H8(408)   C8H8(409)   C8H8(410)
                     C8H8(411)   C8H8(412)   C8H8(413)   C8H8(414)
                     C8H8(415)   C8H8(416)   C8H8(417)   C8H8(418)
                     C8H8(419)   C8H8(420)   C8H8(421)   C8H8(422)
                     C8H8(423)   C8H8(424)   C8H8(425)   C8H8(426)
                     C8H8(427)   C8H8(428)   C8H8(429)   C8H8(430)
                     C8H8(431)   C8H8(432)   C8H8(434)   C8H9J(435)
                     C8H9J(436)  C8H9J(437)  C8H9J(438)  C8H9J(439)
                     C8H8(440)   C8H8(441)   C8H7J(442)  C8H7J(443)
                     C8H7J(444)  C8H7J(445)  C8H6(446)   C8H8(447)
                     C8H8(448)   C8H8(449)   C8H8(450)   C8H8(451)
                     C8H8(452)   C9H9J(453)  C9H9J(454)  C6H8(455)
                     C4H4(456)   C4H4(457)   C7H7J(458)  C7H7J(459)
                     C8H10(460)  S(461)      S(462)      S(463)
                     S(464)      S(465)      S(466)      C8H12(467)
                     C7H6(468)   C8H12(469)  C7H7J(470)  C8H11(471)
                     C8H11(472)  C8H11(473)  C8H11(474)  C8H11(475)
                     C8H11(476)  C8H11(477)  C8H11(478)  C8H11(479)
                     C8H10(480)  C4H8(481)   C6H8(482)   C6H8(483)
                     C6H8(484)   C6H7J(485)  C6H7J(486)  C6H7J(487)
                     C6H7J(488)  C6H7J(489)  C6H7J(490)  C6H6(491)
                     C7H8(492)   C7H8(493)   C6H8(494)   S(495)
                     S(496)      S(497)      S(498)      C7H12(499)
                     C4H7J(500)  BD2YL(501)  BD1YL(502)  C8H10(503)
                     S(504)      C6H9(505)   C4H6(506)   C9H7J(507)
                     C9H7J(508)  C7H7J(510)  C7H7J(511)  C5H7(512)
                     C9H13(513)  C9H13(514)  C9H13(515)  C9H12(516)
                     C4H5(517)   C4H5(518)   C8H9J(519)  C8H9J(520)
                     C8H9J(521)  C8H8(522)   C7H6(523)   C5H5(524)
                     C7H7J(525)  C6H8(526)   C5H9J(527)  S(528)
                     S(529)      S(530)      S(531)      S(532)
                     C8H12(533)  C8H12(534)  C8H12(535)  C6H8(536)
                     C6H8(537)   C6H8(538)   C6H8(539)   C6H6(540)
                     C6H6(541)   C6H6(542)   C9H12(543)  C9H12(544)
                     C9H12(545)  C9H12(546)  C9H12(547)  C6H9J(548)
                     C5H5(549)   C5H5(550)   C5H5J(551)  C5H5J(552)
                     C5H5J(553)  C5H4(554)   C5H5J(555)  C5H5J(556)
                     C4H2(557)   C4H3(558)   S(559)      S(560)
                     S(561)      S(562)      S(563)      S(564)
                     S(565)      S(566)      S(567)      S(568)
                     S(569)      S(570)      S(571)      S(572)
                     S(573)      S(574)      S(575)      S(576)
                     C5H8(577)   S(578)      S(579)      S(580)
                     S(581)      S(582)      C8H11(583)  C8H11(584)
                     C8H11(585)  C8H11(586)  C8H11(587)  C8H11(588)
                     C8H10(589)  S(590)      R4OO(591)   S(592)
                     S(593)      S(594)      S(595)      S(596)
                     S(597)      S(598)      S(599)      S(600)
                     S(601)      C6H5O(602)  C6H5O(603)  S(604)
                     S(605)      C5H6O(606)  C5H6O(607)  C5H6O(608)
                     C5H5O(609)  S(610)      S(611)      C5H5O(612)
                     C5H4O(613)  S(614)      S(615)      C6H5O(616)
                     C5H6O(617)  S(618)      CHO3J(619)  C5H6O(620)
                     C5H6O(621)  C5H6O(622)  C5H6O(623)  C5H6O(624)
                     C5H6O(625)  C5H7O(626)  C5H7O(627)  S(628)
                     S(629)      S(630)      S(631)      C7H7O(632)
                     C7H7O(633)  C7H7O(634)  C7H7O(635)  S(636)
                     S(637)      S(638)      C7H7O(639)  S(640)
                     S(641)      S(642)      C7H7O(643)  S(645)
                     C7H7O(646)  C7H7O(647)  C7H7O(648)  C7H7O(649)
                     C7H7O(650)  C7H7O(651)  S(652)      S(653)
                     S(654)      C7H7O(655)  C7H7O(657)  C7H7O(658)
                     C7H7O(659)  C6H5O(660)  C6H5O(661)  S(662)
                     C4H5O(663)  S(664)      C4H5O(665)  C4H5O(666)
                     C4H5O(667)  C4H5O(668)  S(669)      C5H5O(670)
                     S(671)      C7H7O(672)  C5H6O(673)  S(674)
                     C5H5O(675)  C7H7O(676)  C7H7O(677)  S(678)
                     S(679)      S(680)      C4H7O(681)  C4H7O(682)
                     C4H7O(683)  C4H7O(684)  S(685)      S(686)
                     C4H5O(687)  C4H4O(688)  S(689)      S(690)
                     S(691)      S(692)      S(693)""",
          reactions='all',
          initial_state=state(temperature=300.0, pressure=OneAtm))

#-------------------------------------------------------------------------------
# Species data
#-------------------------------------------------------------------------------

species(name='Ar',
        atoms='Ar:1',
        thermo=(NASA([200.00, 1000.00],
                     [ 2.50000000E+00,  0.00000000E+00,  0.00000000E+00,
                       0.00000000E+00,  0.00000000E+00, -7.45375000E+02,
                       4.37967490E+00]),
                NASA([1000.00, 6000.00],
                     [ 2.50000000E+00,  0.00000000E+00,  0.00000000E+00,
                       0.00000000E+00,  0.00000000E+00, -7.45375000E+02,
                       4.37967490E+00])))

species(name='N2',
        atoms='N:2',
        thermo=(NASA([200.00, 1000.00],
                     [ 3.53100528E+00, -1.23660988E-04, -5.02999433E-07,
                       2.43530612E-09, -1.40881235E-12, -1.04697628E+03,
                       2.96747038E+00]),
                NASA([1000.00, 6000.00],
                     [ 2.95257637E+00,  1.39690040E-03, -4.92631603E-07,
                       7.86010195E-11, -4.60755204E-15, -9.23948688E+02,
                       5.87188762E+00])))

species(name='Ne',
        atoms='Ne:1',
        thermo=(NASA([200.00, 1000.00],
                     [ 2.50000000E+00,  0.00000000E+00,  0.00000000E+00,
                       0.00000000E+00,  0.00000000E+00, -7.45374980E+02,
                       3.35532270E+00]),
                NASA([1000.00, 6000.00],
                     [ 2.50000000E+00,  0.00000000E+00,  0.00000000E+00,
                       0.00000000E+00,  0.00000000E+00, -7.45375000E+02,
                       3.35532270E+00])))

species(name='He',
        atoms='He:1',
        thermo=(NASA([200.00, 1000.00],
                     [ 2.50000000E+00,  0.00000000E+00,  0.00000000E+00,
                       0.00000000E+00,  0.00000000E+00, -7.45375000E+02,
                       9.28723974E-01]),
                NASA([1000.00, 6000.00],
                     [ 2.50000000E+00,  0.00000000E+00,  0.00000000E+00,
                       0.00000000E+00,  0.00000000E+00, -7.45375000E+02,
                       9.28723974E-01])))

species(name='JP10(1)',
        atoms='C:10 H:16',
        thermo=(NASA([250.00, 995.00],
                     [-8.75281709E+00, -1.47066360E-01,  8.16041666E-04,
                      -9.40005641E-07,  3.36500673E-10, -6.17744168E+03,
                       1.08057239E+02]),
                NASA([995.00, 5000.00],
                     [ 5.90147427E+01, -2.02596655E-02,  2.30595608E-05,
                      -5.50206046E-09,  4.04894317E-13, -3.94277197E+04,
                      -3.17857370E+02])))

species(name='O2(2)',
        atoms='O:2',
        thermo=(NASA([250.00, 995.00],
                     [ 3.54869986E+00, -1.28797020E-03,  5.82700881E-06,
                      -5.76400113E-09,  1.86418279E-12, -1.04228473E+03,
                       4.62288176E+00]),
                NASA([995.00, 5000.00],
                     [ 3.27573492E+00,  1.37750101E-03, -5.55093355E-07,
                       9.57662136E-11, -5.98886255E-15, -1.06559552E+03,
                       5.54832376E+00])))

species(name='C(3)',
        atoms='C:1',
        thermo=(NASA([200.00, 1000.00],
                     [ 2.55423950E+00, -3.21537720E-04,  7.33792230E-07,
                      -7.32234870E-10,  2.66521440E-13,  8.54426810E+04,
                       4.53130850E+00]),
                NASA([1000.00, 6000.00],
                     [ 2.60558300E+00, -1.95934340E-04,  1.06737220E-07,
                      -1.64239400E-11,  8.18705800E-16,  8.54117420E+04,
                       4.19238680E+00])))

species(name='CH(4)',
        atoms='C:1 H:1',
        thermo=(NASA([200.00, 1000.00],
                     [ 3.48975830E+00,  3.24321600E-04, -1.68997510E-06,
                       3.16284200E-09, -1.40618030E-12,  7.06607550E+04,
                       2.08428410E+00]),
                NASA([1000.00, 6000.00],
                     [ 2.52093690E+00,  1.76536390E-03, -4.61476600E-07,
                       5.92896750E-11, -3.34745010E-15,  7.09948780E+04,
                       7.40518290E+00])))

species(name='C2H(5)',
        atoms='C:2 H:1',
        thermo=(NASA([250.00, 995.00],
                     [ 3.46053572E+00,  1.03338211E-02, -1.96416399E-05,
                       1.75865088E-08, -5.62480604E-12,  6.69374066E+04,
                       3.91779959E+00]),
                NASA([995.00, 5000.00],
                     [ 4.12307289E+00,  2.80346759E-03, -9.52962582E-07,
                       1.49703410E-10, -8.86100271E-15,  6.70464994E+04,
                       1.93545205E+00])))

species(name='C2H2(6)',
        atoms='C:2 H:2',
        thermo=(NASA([250.00, 995.00],
                     [ 3.16199256E+00,  4.47311476E-03,  9.90510161E-06,
                      -1.54679125E-08,  6.01696129E-12,  2.62946259E+04,
                       4.35281165E+00]),
                NASA([995.00, 5000.00],
                     [ 5.55471770E+00,  3.18957832E-03, -7.24857154E-07,
                       7.23331981E-11, -2.51539262E-15,  2.54058225E+04,
                      -9.25224497E+00])))

species(name='CH2CO(7)',
        atoms='C:2 H:2 O:1',
        thermo=(NASA([250.00, 995.00],
                     [ 3.75942088E+00,  5.37047003E-03,  1.31650899E-05,
                      -1.96157686E-08,  7.46371767E-12, -7.31775765E+03,
                       5.55364379E+00]),
                NASA([995.00, 5000.00],
                     [ 6.17582675E+00,  5.45246018E-03, -1.72536110E-06,
                       2.54267578E-10, -1.42647835E-14, -8.28358749E+03,
                      -8.52891107E+00])))

species(name='HCCOH(8)',
        atoms='C:2 H:2 O:1',
        thermo=(NASA([250.00, 995.00],
                     [ 3.64364977E+00,  1.04720611E-02,  2.65501989E-07,
                      -8.03025411E-09,  3.85645089E-12,  9.54584833E+03,
                       5.90806084E+00]),
                NASA([995.00, 5000.00],
                     [ 6.93739509E+00,  4.34918440E-03, -1.23422919E-06,
                       1.63385582E-10, -8.32706576E-15,  8.53799745E+03,
                      -1.17366022E+01])))

species(name='C2H3(9)',
        atoms='C:2 H:3',
        thermo=(NASA([250.00, 995.00],
                     [ 3.79141287E+00, -1.86819380E-03,  3.03455017E-05,
                      -3.48492572E-08,  1.22076455E-11,  3.45522798E+04,
                       5.95819910E+00]),
                NASA([995.00, 5000.00],
                     [ 5.13696945E+00,  6.11668772E-03, -1.88246429E-06,
                       2.70800443E-10, -1.48859136E-14,  3.36214297E+04,
                      -3.85852804E+00])))

species(name='CH3CO(10)',
        atoms='C:2 H:3 O:1',
        thermo=(NASA([250.00, 995.00],
                     [ 3.73550270E+00,  1.76719581E-03,  3.31718471E-05,
                      -4.14498826E-08,  1.49827374E-11,  8.17238793E+02,
                       8.17763909E+00]),
                NASA([995.00, 5000.00],
                     [ 6.63717127E+00,  7.80247593E-03, -2.60810913E-06,
                       3.98831674E-10, -2.29715276E-14, -6.36454545E+02,
                      -1.02098235E+01])))

species(name='ethene(11)',
        atoms='C:2 H:4',
        thermo=(NASA([250.00, 995.00],
                     [ 3.87057114E+00, -6.52547530E-03,  4.84652385E-05,
                      -5.25238499E-08,  1.79235685E-11,  5.08135398E+03,
                       4.46240150E+00]),
                NASA([995.00, 5000.00],
                     [ 4.45387927E+00,  9.40070604E-03, -3.08614191E-06,
                       4.68494519E-10, -2.68872449E-14,  4.06075369E+03,
                      -2.89394035E+00])))

species(name='CH3CHO(12)',
        atoms='C:2 H:4 O:1',
        thermo=(NASA([250.00, 995.00],
                     [ 3.97679723E+00,  1.29697259E-03,  3.42852569E-05,
                      -4.02528134E-08,  1.40450785E-11, -2.13953212E+04,
                       7.45497560E+00]),
                NASA([995.00, 5000.00],
                     [ 5.07429431E+00,  1.18655667E-02, -4.22923863E-06,
                       6.81521963E-10, -4.08543594E-14, -2.23553474E+04,
                      -1.56090723E+00])))

species(name='ETHYL(13)',
        atoms='C:2 H:5',
        thermo=(NASA([250.00, 995.00],
                     [ 3.87193994E+00, -3.57531865E-04,  3.69680741E-05,
                      -4.21755109E-08,  1.45890315E-11,  1.31715059E+04,
                       6.49792536E+00]),
                NASA([995.00, 5000.00],
                     [ 4.74777319E+00,  1.14086285E-02, -3.81375099E-06,
                       5.87463020E-10, -3.41128644E-14,  1.22404195E+04,
                      -1.52590277E+00])))

species(name='C2H6(14)',
        atoms='C:2 H:6',
        thermo=(NASA([250.00, 995.00],
                     [ 3.94214289E+00, -2.39339454E-03,  4.77884447E-05,
                      -5.27271345E-08,  1.79554393E-11, -1.14739596E+04,
                       4.09841021E+00]),
                NASA([995.00, 5000.00],
                     [ 4.16554485E+00,  1.46680526E-02, -5.00469347E-06,
                       7.82529864E-10, -4.59381956E-14, -1.24075130E+04,
                      -1.44588425E+00])))

species(name='HCCO(15)',
        atoms='C:2 H:1 O:1',
        thermo=(NASA([250.00, 995.00],
                     [ 3.82597546E+00,  8.13093657E-03, -2.72379528E-06,
                      -2.50448028E-09,  1.60877419E-12,  1.98647119E+04,
                       5.50879563E+00]),
                NASA([995.00, 5000.00],
                     [ 5.95851738E+00,  3.29544747E-03, -1.06811684E-06,
                       1.60739669E-10, -9.17748391E-15,  1.92553070E+04,
                      -5.69855093E+00])))

species(name='C3H8(16)',
        atoms='C:3 H:8',
        thermo=(NASA([250.00, 995.00],
                     [ 3.72133814E+00,  6.11910806E-03,  5.32883085E-05,
                      -6.57519160E-08,  2.34123482E-11, -1.44160754E+04,
                       8.38482244E+00]),
                NASA([995.00, 5000.00],
                     [ 6.95545225E+00,  1.94941131E-02, -6.63511755E-06,
                       1.03542680E-09, -6.06909681E-14, -1.63654446E+04,
                      -1.37631262E+01])))

species(name='CH2(S)(17)',
        atoms='C:1 H:2',
        thermo=(NASA([250.00, 995.00],
                     [ 4.04212178E+00, -1.15274732E-03,  5.22815284E-06,
                      -3.73597781E-09,  8.87625805E-13,  5.03678415E+04,
                      -1.70419010E-01]),
                NASA([995.00, 5000.00],
                     [ 2.83990582E+00,  3.35541404E-03, -1.07836223E-06,
                       1.61408495E-10, -9.19080024E-15,  5.06231652E+04,
                       5.70436620E+00])))

species(name='CH2(18)',
        atoms='C:1 H:2',
        thermo=(NASA([250.00, 995.00],
                     [ 3.92338879E+00, -3.42061606E-04,  4.71356556E-06,
                      -4.31840931E-09,  1.31013432E-12,  4.60087780E+04,
                       1.01719441E+00]),
                NASA([995.00, 5000.00],
                     [ 3.46655504E+00,  2.32873400E-03, -5.70356857E-07,
                       6.44460788E-11, -2.76060819E-15,  4.60583865E+04,
                       3.01132772E+00])))

species(name='CH2O(19)',
        atoms='C:1 H:2 O:1',
        thermo=(NASA([250.00, 995.00],
                     [ 4.14335913E+00, -4.86056354E-03,  2.41407887E-05,
                      -2.36660642E-08,  7.59901450E-12, -1.43531549E+04,
                       3.21106262E+00]),
                NASA([995.00, 5000.00],
                     [ 2.85861719E+00,  6.52295775E-03, -2.39446178E-06,
                       3.93304338E-10, -2.38836837E-14, -1.44053526E+04,
                       7.85578452E+00])))

species(name='CH3(20)',
        atoms='C:1 H:3',
        thermo=(NASA([250.00, 995.00],
                     [ 3.93682449E+00,  7.92915830E-04,  7.77015640E-06,
                      -7.97563501E-09,  2.54245960E-12,  1.64316520E+04,
                       4.20283340E-01]),
                NASA([995.00, 5000.00],
                     [ 3.38082042E+00,  4.98551865E-03, -1.50096686E-06,
                       2.12965349E-10, -1.16164943E-14,  1.64453942E+04,
                       2.61296777E+00])))

species(name='CH3O(21)',
        atoms='C:1 H:3 O:1',
        thermo=(NASA([250.00, 995.00],
                     [ 3.93503523E+00, -4.24555276E-03,  3.52189674E-05,
                      -3.84771863E-08,  1.31600997E-11,  1.23186779E+03,
                       4.98040235E+00]),
                NASA([995.00, 5000.00],
                     [ 4.41665477E+00,  7.28997217E-03, -2.47859612E-06,
                       3.85890642E-10, -2.25598212E-14,  4.69102967E+02,
                      -6.91944796E-01])))

species(name='CH2OH(22)',
        atoms='C:1 H:3 O:1',
        thermo=(NASA([250.00, 995.00],
                     [ 3.81358380E+00,  3.46190628E-03,  1.40886734E-05,
                      -1.89643729E-08,  6.98505151E-12, -3.18774613E+03,
                       6.04952447E+00]),
                NASA([995.00, 5000.00],
                     [ 5.46962062E+00,  5.36440152E-03, -1.68271691E-06,
                       2.47411339E-10, -1.38754850E-14, -3.94106111E+03,
                      -4.06096898E+00])))

species(name='CH4(23)',
        atoms='C:1 H:4',
        thermo=(NASA([250.00, 995.00],
                     [ 4.14960776E+00, -6.07725144E-03,  2.94431435E-05,
                      -2.75886052E-08,  8.58430159E-12, -1.00560789E+04,
                      -5.64708683E-01]),
                NASA([995.00, 5000.00],
                     [ 1.79580743E+00,  9.50671464E-03, -3.27779914E-06,
                       5.17040096E-10, -3.05675769E-14, -9.89071825E+03,
                       9.25644206E+00])))

species(name='CH3OH(24)',
        atoms='C:1 H:4 O:1',
        thermo=(NASA([250.00, 995.00],
                     [ 4.03410963E+00, -2.66262723E-03,  3.22412841E-05,
                      -3.44960972E-08,  1.15653826E-11, -2.55819257E+04,
                       5.43469328E+00]),
                NASA([995.00, 5000.00],
                     [ 3.61420891E+00,  1.00298499E-02, -3.48127632E-06,
                       5.52014570E-10, -3.27465508E-14, -2.60431455E+04,
                       4.72089609E+00])))

species(name='HCO(25)',
        atoms='C:1 H:1 O:1',
        thermo=(NASA([250.00, 995.00],
                     [ 4.07911606E+00, -2.04313654E-03,  1.07103373E-05,
                      -1.03340374E-08,  3.27067905E-12,  3.91461610E+03,
                       3.90614648E+00]),
                NASA([995.00, 5000.00],
                     [ 3.35179196E+00,  3.38424230E-03, -1.24538093E-06,
                       2.04745742E-10, -1.24408852E-14,  3.93541841E+03,
                       6.78865597E+00])))

species(name='CO(26)',
        atoms='C:1 O:1',
        thermo=(NASA([250.00, 995.00],
                     [ 3.56773967E+00, -5.32499825E-04,  1.54679428E-06,
                      -6.55617709E-10,  1.37691827E-14, -1.42987064E+04,
                       3.48804470E+00]),
                NASA([995.00, 5000.00],
                     [ 2.88372539E+00,  1.54925129E-03, -5.84492421E-07,
                       9.77100789E-11, -6.00865404E-15, -1.41295151E+04,
                       6.95077540E+00])))

species(name='CO2(27)',
        atoms='C:1 O:2',
        thermo=(NASA([250.00, 995.00],
                     [ 3.40009371E+00,  1.13118308E-03,  1.15193991E-05,
                      -1.51419438E-08,  5.58768933E-12, -4.85041437E+04,
                       5.56133440E+00]),
                NASA([995.00, 5000.00],
                     [ 4.80896425E+00,  2.39610998E-03, -8.31946472E-07,
                       1.30999740E-10, -7.70688480E-15, -4.91275191E+04,
                      -2.95218476E+00])))

species(name='H(28)',
        atoms='H:1',
        thermo=(NASA([250.00, 995.00],
                     [ 2.50000000E+00,  1.99081760E-15, -5.27321330E-18,
                       5.25870775E-21, -1.77745028E-24,  2.54739285E+04,
                      -4.46185831E-01]),
                NASA([995.00, 5000.00],
                     [ 2.50000000E+00,  5.54860495E-16, -3.24916219E-19,
                       7.84093477E-23, -7.35114971E-27,  2.54739285E+04,
                      -4.46185831E-01])))

species(name='H2(29)',
        atoms='H:2',
        thermo=(NASA([250.00, 995.00],
                     [ 3.41068059E+00,  4.17441328E-05, -1.08412739E-08,
                       4.43448556E-10, -2.21372917E-13, -1.01942575E+03,
                      -3.73103762E+00]),
                NASA([995.00, 5000.00],
                     [ 3.22603164E+00,  3.77023933E-04,  9.72683741E-08,
                      -4.00445607E-11,  3.37974980E-15, -9.62530510E+02,
                      -2.73988629E+00])))

species(name='H2O(30)',
        atoms='H:2 O:1',
        thermo=(NASA([250.00, 995.00],
                     [ 3.97171869E+00, -5.76604078E-04,  2.70123185E-06,
                      -1.29689784E-09,  1.25684316E-13, -3.03782706E+04,
                       9.63517407E-02]),
                NASA([995.00, 5000.00],
                     [ 2.99954896E+00,  2.48173764E-03, -6.28220188E-07,
                       7.55971742E-11, -3.53055706E-15, -3.01427352E+04,
                       4.99305195E+00])))

species(name='H2O2(31)',
        atoms='H:2 O:2',
        thermo=(NASA([250.00, 995.00],
                     [ 3.91421078E+00,  1.12390865E-03,  1.11991624E-05,
                      -1.37313125E-08,  4.88854923E-12, -1.74429644E+04,
                       5.04634097E+00]),
                NASA([995.00, 5000.00],
                     [ 4.61000044E+00,  3.85288416E-03, -1.24498867E-06,