"""
 Modified by J Santner for use in cantera. Removed species with duplicate names and tritium species
SOME SMALL SPACING CHANGES BY J SANTNER

EXTENDED THIRD MILLENIUM IDEAL GAS AND CONDENSED PHASE THERMOCHEMICAL DATABASE
FOR COMBUSTION WITH UPDATES FROM ACTIVE THERMOCHEMICAL TABLES
Authors: Elke Goos, Alexander Burcat and Branko Ruscic.

This file was checked by Egil Jahnsen (Norway) <egil.jahnsen@vabb.no> for errors
and compatibility to automatic devices. Last check: July 16 2016

It is strictly forbiden to include this database as is or parts of it in any
commercial software firmware or hardware without permission from the authors.
Contact: Elke.Goos@dlr.de

*WARNING***The original 7-coeficient polynomials can accept molecules
containing only four different elements. The new CHEMKIN program was changed to
accept polynomials with 5 diferent elements. See the CHEMKIN manual.
Where the fifth element exist, the new Chemkin convention was folowed.

"""

units(length='cm', time='s', quantity='mol', act_energy='cal/mol')

ideal_gas(name='gas',
          elements="He Ag Pb F E Pt Fe N Ca Zr Ni Br Rn Kr Os Sb Hg W Mg K Al C H I Xe Si Po Tc Na Cl P Ra Cr Pd Ne Zn Ti D Cu Mn Ba Bi Sn Mo Ir Ge Te S Ar O B",
          species="""Pb(G)              H2O2(L)            C3H7N3O5
                     C5H5               C11H22O2           FeOCL(cr)
                     C3H9P              H3O+               CaCO3(s)
                     CBrCLF2            OS(g)              DO2
                     C5H10              C11N               W(cr)
                     C6HCL3OH           FO2+               C3F3
                     PCLF-              C2H3               AL2O+
                     SbOH               CHO2-              C3HCl2*
                     C32H13             WBr                Pd(cr)
                     PO                 Ge                 Br2(L)
                     CHF3               P2O3               H+
                     COO+               C3O2+              FeSO4(S)
                     N-NITRO-AZETIDIN   C3H8O3             P2H2
                     C8H14              CH-                C12H4Cl4O
                     NT                 Cl2C=C=CCL(O*)     MgSiO3(III)
                     pC7H7              F2O2               S8
                     n-C4H10O2          F2H-               C2H5O
                     Ni3S2(L)           C14H28             C6H6O2
                     HgCl2              NeH                C12
                     C2D6O              C6H5               F3P+
                     TI                 C15H14             MgF+
                     C17H32O2           Fe2CL4             CH2(NO2)2
                     C6                 S6                 CHO+
                     CI4                CH3CO              TRI-NITRO
                     C5H12,i-pentane    C24CL12            C6H5OOH
                     ALBr2              Ni-                C-
                     C2N                C7H5O              C5H8CL
                     C8H16,1-octene     D2+                C6H8
                     Hg(cr)             CBr2O              C6H8O5(NO2)2
                     GeS                C3H7N              1,2,3,C6H3Cl3
                     CaO(S)             C10H8              CCl4
                     C(NO2)4            C2Cl3F3            Pb-
                     MgCO3(L)           Ni3S4(cr)          C12H5O3CL4
                     Fe2O3(S)           C15H30O2           C2H5NO2
                     C12H8              SF2                C3H4Cl
                     HOCN               H2NN+              CNCN-
                     CH3Br              1,3-C6H4           o-C6H4ClO
                     SbF3               C7H15O             CH6P2
                     PbCL4              CH2SO              C2H3O
                     Te+                HNC+               BiCl3
                     PbBr2              WOCL4(L)           CrCl5
                     C6Cr23             C2(NO2)2           HBr
                     HCNH+              C2H3I              C3H3I
                     NO3F               HCOOH              Pd(g)
                     F2O                C19H40             C12H5CL4O3
                     CaCO3(liq)         MgF2+              CCL3NO2
                     Cr                 Br2+               C9H19
                     *CH2(CH3)-N-NH2    H3PO4(L)           HOCl+
                     CH(NO2)3           CH3CH              NiS(b)
                     C5H6N2             PF                 AL(OH)2
                     NCl2H              CHF+               Cr2O3(I)
                     HBr+               Hg(liq)REF         HNNH-
                     CS2                PCLF               C6H2Cl3OOH
                     ClH2+              HDO2               HCCNO2
                     PC+                NaO2(cr)           C6H11+
                     I                  C2H7O+             CNO+
                     CrCl3              CH3CBr3            C25H20
                     C11                C2H4               BH5
                     MgF2(cr)I          PFCL2              Ni3S2(b)
                     C6H5NO2            C3Br2              P2H-
                     C4H8,cis2-buten    C12H5CL5O2         HNOH
                     C2H4O2(L)          C2Br2              WCL6(I)
                     Fe2CL6             C5H13O+            Fe3O4(S)
                     C6H5O              Mg                 (NH2)2C=N-NO2
                     PF3CL2             C5H6O              CBr2F2
                     Ra(cr)             MoC                C3HBr2*
                     CHI3               NH2OH              C6H12O7
                     C5H6               HCCO               PBr3+
                     SbF                CH3CCl3            ZnS(cr)
                     C2H5               KNO3(G)            NO3+
                     C3F7H              BrNO2              CH4S3
                     C4H10              C4H10S             C(cr)
                     C5H6O2             H2S-               C19H32O2
                     Mg2SiO4(cr)        BiCl               C6H3N3O7
                     C7H8OS             H2O+               C12H7
                     P2O4               Cr+                INO2
                     H2+                Sb                 MgH2(L)
                     Sn(CH3)4           ClHC=C=CCl(O*)     N2-
                     CH2N4              n-C5H11            OS(cr)
                     H3B3O6             H7F7               ZnCO3
                     AL2O2+             CH5P+              C6H4(C2H)CH=CH*
                     BF2-               CuCL2(cr)          H2SO4(L)
                     HCNO+              DN=C=O             C2HBr5
                     N2H-               AL                 D2N-DC=O
                     Zn(cr)REF          C3H5N              C15H12
                     H2NN-              PbS                CHBr3
                     HOCO-              C3HN               C5H8O4
                     MgSiO3(L)          CCLF               C12H8S
                     CO2-               H6F6               CH3C(O)O-NO2
                     CBr3               Br-                C3H7O
                     Mg2TiO4(L)         CF3                SD
                     C6H4               C3H3               C8H18,isooctane
                     NH2O+              C13H10O            C12H
                     CHOS               N2H4+              N2H
                     C3H5O              CL3P               SF6-
                     C3H9P+             IR(L)              C2HF3
                     NH4NO3(II)         DBr                CH2S2
                     C(NO)              SiC                SCL
                     C3H10Si            C2Cl4              Na2O2
                     C30H10             D2-                CH3-CO-O-O-CO-CH3
                     CDClO              B2CL4              C9H12
                     NeH+               C11H11             C5F6
                     1,2,3,5-C6H2Cl4    C10H12O3           HC(OO)
                     Ra(g)              C3H2F3             C2H6
                     C5H12              MgCL               HClO3
                     P2H+               HSO2               C6N6O12
                     CH2NH+             PbS(L)             WF4
                     C6H12O6            ALCL3              PO2-
                     o-C6H3             BrI                FeCL2(S)
                     Ca(b)              C13H9              DI
                     C2HBr3             C3H5NO4            HCNO
                     C16H30O2           H3O2+              BF2+
                     BrS                Zr+                PD3
                     C4H6S              C6H6               C3H6
                     IO                 HNCO               HI
                     C2H4Cl             C7H7+              KO
                     HPO4               Fe+                C6H3N2O4
                     C5H9NO4            C2CL4+             H3B3O3
                     C3H7O2             C8H12              HCLO4
                     NOO+               HPO2               SiH4
                     WOCL4(cr)          MgCL+              CH3
                     C15H30             CH3N               CH5OP-
                     C3N3P+             C11H9              C4H10O3
                     CF3-CHCL2          SOF2               1-C10H7O*
                     C3H7O+             CL2                C10H14
                     P3O6               CH3PH3+            C5H5-
                     NiS(L)             C9H17              WF
                     MgH2(b)            C70                C4H3
                     C3F                PtO2               NE
                     SbBr3              F2-                C2H4S4
                     NOF                C2F4               C4H11P-
                     C6H12(L)           O-C12D9            C7H8O2
                     C7H10N2O2          C3H3N3             C4H4N2
                     C6H5NO             N2D2               H2F2
                     CHOH               Si(cr)             C6H7+
                     C3H6O2             NaOH+              BOCL
                     PO3+               C10H8O             C18H10
                     2,4-C6H4Cl2O       CH3C+              SiHCL3
                     BCL                CH2Br-CH2Br        C18H32O2
                     C12H25             C20H40O2           N3H+
                     SnH3               C4H6               H3+
                     C2H5PH3-           Sb4                C5H5N5
                     K2O2(g)            C2H3-              SB(CH3)2
                     C5H11O+            FO3F               (CH2I)2
                     C7H16,n-heptane    NON-               AL(L)
                     C5H10,cyclo-       MgH                C7H16O
                     SiH4+              CaO(L)             Cr7C3(S)
                     H3PO4              K(cr)              CH2OH2
                     CrCl2              C2H5NO3            C2N2+
                     BrF                C7H5NS             C2H2
                     C4H12Si+           CHBR2              C7H7O2
                     ZnCl2(G)           CH3-CHBr2          C4H4O2
                     C6H3               ALO                PO4---
                     P4                 N2F2               CH2NO
                     PbI                CBR                H2NC=O
                     ALCL               OH                 SnH4
                     CH3-NH-CH3         C5H4O              C3Br4
                     CL2+               SO2CL2             C2N2
                     Fe(c)              SF+                F2
                     HNO2+              C2H5-              CCO
                     HgBr2(cr)          C13H10             SSO+
                     C20H14             C2CL               C5H5N
                     OS(liq)            C5H5N5O            C3H8O
                     CH2BrI             CD2O               CrO3
                     C2H5N3             C12H6CL2O2         C10H10
                     E-                 C12H6CL2O          CHFCL2
                     C18H36O4           CH3-               ALO2
                     P2O5               C4H7               C8H6S
                     HNO4+              C4H9O+             CHBR
                     CHF-               NCl3               NH4CLO4(I)
                     Jet-A(L)           C3H2(1)            C6H6(L)
                     C2H5CL             C3H7OO             FCN+
                     I2O                C6H13              CuO
                     Fe3O4(L)           C4H2               FeS2(S)
                     CBr2               C3H2CL2            C15H16O2
                     CD5N               C2H6O2             MgTi2O5(cr)
                     C5H3N              PbO                S-
                     C5H8O              C12H9              C12H8Cl2O2
                     C4H8O4             C3H3N              C6H11
                     C10H22O4           C2H7PO3            N2O3+
                     CCL3O*             Fe2(SO4)3(S)       C14H13
                     NOO-               P2H4               C18H33O2
                     C4H7O2             CCl2+              C12H10
                     DOBR               Na2CO3(liq)        C6H4ClO
                     NH2O-              F+                 NH4NO3(I)
                     C12H9N             S2F2               PH2
                     Ca+                Cu                 AL2
                     C7H14O             1-C10H7-C*=CH2     ZrF2
                     C5H12O(L)          SO2F2              O3-
                     FeCL2              NH2CH2C(O)OH       C10H7-CH2CH2*
                     Te(liq)            C3H9P-             PF2CL3
                     HeH+               C2H6O              NH2
                     K                  NO2HCCNO2          Tc+(g)
                     MUSTARD            ST                 MgAL2O4(L)
                     N3+                XeH+               C2H2+
                     ICN                SF4-               C7H5(NO2)2-ONO
                     C8H                WOCL4              C4H6O2
                     COH-               W-                 Mg2
                     BrO2               C4H9N              W3O9
                     C3H9Si             CrCl6              C7H5(NO2)2
                     1,2-C2H2F2-trans   1-C10H7C*O         1-C10H7CH=CH2
                     OH-                WO2CL2(cr)         C6H
                     N2F4               BH4                F-
                     HCl+               NClH2              Ag+
                     C3H5OH             HO2-               FCO+
                     1,2,3-C6H4-5-yne   He+                C16H10
                     NH2F               C10H15             *CH2NH2
                     C2H2F4             C3HCL3             C5H11N3O5
                     (CH3)2-N-NH2       WCL6(III)          BF3
                     C2HF5              S2-                C2H5I
                     CHBr2F             CH2Cl-CH2Cl        C7H14(L)
                     BrCN+              Cr(L)              CHP
                     C18H36O2           CH4N4O2            BO2
                     CH2=CH-NO2         C6H8O7             C16H31O2
                     NO3                C4F2               CBr4
                     beta               CF2-               CLCN
                     C3HCl2OH           FOOF+              B(S)
                     BO                 PCl2+              CH2O+
                     C9H18              Mg2SiO4(L)         C14H14
                     C2DH               C7H7               C7H10
                     MgTiO3(L)          BrOBr              Na+
                     C6H11I             PbF                KNO3(a)
                     CH4O+              Fe.947O(S)         N2O4
                     C3H9O+             C10D8              C4F6
                     C9H20              ALF2-              CBrF3
                     CCL2F2             C4CL2              Cr2N(S)
                     F2O+               C2HBr              C8H18,n-octane
                     CL3P+              C3H3F3             S5
                     CH3-O-C(O)-NH2     C3N3P              COH
                     WCl                WO2                HO3
                     CHF2               BFCL2              C2H2CL2
                     Bi+                ZnSO4(a')          Te(s)
                     CH3S               C2H3Br             NH4+
                     PF4CL              C9H8               Mo2C(S)
                     HOCL               MgOH+              CH2D2
                     C5H7O              C2H3O-             CH3Hg
                     C4H6N8O8           ZrO2               C6H2N3O7
                     C6H7N              CH3N+              Fe
                     DF                 FCN                GeCL4
                     MgCL2              NH4NO3             CH3NH2-
                     D2O                Zr(a)REF-ELEMENT   O4-
                     SCL2               MgI2               NITROPROPYLENE
                     C2H3F              CCO-               C2D4
                     C2H3N              C6H5ClO            C13H9N
                     CH2O2-             Zn                 CF-
                     N2O-               *CH2NH2+           o-C6H4I2
                     C8H18(L)           CH2N2O             IC2H4OH
                     Na(L)              CCLF3              MgSiO3(I)
                     C2H2(NO2)2         S4                 NaOH
                     C16H33             MgI                C16H34O
                     C3H3O              C6H6O              1-C10H7CHO
                     C2                 C18H31O2           PbH
                     C4H4               CH3O+              C4H11P+
                     COF2               BCL2               C2D4O
                     C18H35O2           Si(L)              Cl2O2
                     m-C6H4I2           C2(NO2)6           C2H3+
                     C6H14O2            MoO2               O(CH)2O
                     C4H7O              C10H21             C2H5PH3+
                     CF2+               C3H6S              I+
                     C2H3OH             AL2O               P-
                     HCL                C2BR6              C6H4O2
                     C12H8O2            Sn+                CHF2Br
                     C9H7               C6H12O2            ALO-
                     Cu3CL3             C8H7N              F3-
                     FNC                C6H15BI            CLF5
                     C3CL4              C10H15O3PS2        CH2BrF
                     H2Sn(C2H5)2        C6H8O3             C2H6N
                     C3H4S              CH2CL              Zn+
                     O-CHLOROPHENYL     CH                 C14H12
                     PH-                *CH2ONO2           NH4CL(III)
                     Tetryl             C10H19             CH2+
                     ClO2               N3H-               CL
                     CaO(G)             Fe(d)              NF
                     CCl-               MgCO3(cr)          1-C10H7-CH3
                     NaNO3(b)           CH3N2O3            CF
                     B2                 C4H4N-             CH2O2(L)
                     C24H20Pb           NCN-               NO+
                     HNNH+              HPO3               ZrN(L)
                     BOF                CH2OH-             CH3CH-
                     WF5                PbBr3              H2
                     SF5-               C2N-               CH3C
                     NSC3H3             MnS2               C3H2(3)
                     C5                 C7H16              C4H10FO2P
                     1-C10H7-CH2*       O+                 CF3O2
                     C25H52             NO2F               H4C3
                     N2H3               Kr+                Fe(CO)5(L)
                     C9H11NO2           CH3NC              P(L)
                     ClCN+              CH3-O-CH2-O-CH3    C3H8S
                     C5H3CL3            C5H7               C12H4Cl4O3
                     SiC2               CH2CL2             C6F6
                     PF2CL              CHF                C2F5
                     C7H7ON             SO2FCL             HNO3+
                     ZrC(cr)            CH2CO              P(cr)
                     C6H3CL3O           HOF+               C12H5OCl3O3
                     N2H4               C13H26O2           PbTe
                     N-UNDECANE         FeCL3              SH
                     C2H4Cl2            Ne+                CH2PH
                     CI2                C2HF+              NiO(cr)A
                     P2                 C10H22O            Cr(cr)REF
                     C4H                CCl2               C(NO)+
                     CCL2F-CHF2         HNCN               B2O2
                     HCN+               C6F14              SF4
                     C7H7O              C2H2F3             CH3NH2+
                     CH3OOCH3           CH5N2              *C(O)CH2NH2
                     Hg(CNO)2           SF3+               C2CL5F
                     I2(L)              C19H38O2           C5H2Cl2O
                     C11H10             BOCL2              (CH3)2N-NO2
                     C4H10O4            C13H12             SiCL2
                     C2H2S3             C2H4+              ClONO2
                     C8H8O              CuF2               C4H6O
                     NBr3               PbI2               H2PO4-
                     C2+                C2H5N              C23H46
                     ZrO2(III)          HCO-               C4F10
                     C10H13             NH4CLO4(II)        NO2-
                     BrO-               CNCN               C2H6-
                     o-C6H5BrO          NITROGLICERINE     SbCl3
                     C4N2               HNOH+              C9H20(L)
                     CCl+               C2H3O2             Br2S
                     C2H2I2             WO3                Pb(L)
                     BrF3               1-C10H7-CH*-CH3    N2O3
                     Na2CO3(s)          C12H4CL5O2         C6H11O2
                     ClI                C9H11              C7H16(L)
                     CBr2CLF            1-2-C10H10         C7
                     H3F3               FeS(b)             C5H10O3
                     PH3-               C12H2              C8H6
                     PbBr4              CH2ClBr            HCN
                     C3H2N4O4           Fe(L)              SiCL
                     Mo                 CH3CN              C4H8O2
                     ZnSO4(b)           PF2-               C3H4O
                     HNC                C12H12             HFCO
                     MgO                SiF2               C5H9N
                     Br                 C6H12,cy-Hexane    C2HCl3
                     Na2O(L)            NiS2(L)            S3
                     B3O3F3             Mg+                Si+
                     BH                 C3H6(NO2)2         Te(g)
                     FeS(c)             BF2                C2H2-
                     Mo(cr)             PS                 COO-
                     NO2-cyclo          C21H44             NHF
                     Tc                 CH2O               CH3N3O4
                     C5H7CL             1,4-C6H4           HALO
                     CHBr2CHBr2         m-CHLOROPHENYL     Cr2O3(I')
                     Cu2                SiO2(L)            COS
                     C5H7NO             CNO-               HO3-
                     C2F2               HOF                AL2O3(b)
                     P2H2-              C2F                NBrH2
                     PH3                C9H18O2            N-C10H22
                     CH3SS              GeS(s)             C4H10O2
                     CH3OO+             H2S                CH3O-
                     C17H34O2           CH4                F2+
                     SO3                I2                 CBRCL3
                     C8                 C2H6O+             MgI2(L)
                     FeCL               C2H7+              C4H8,tr2-butene
                     C8H16O2            Si2N2O(cr)         CF3-
                     C6H5OO             CH2NC              C7H8(L)
                     H2-                C2D2O              C2H5O2
                     C12D10             CS                 S
                     MgS(cr)            CH5+               C2O
                     C20H36O2           C2H5+              C2HCLF
                     CH3NO2-            CH3N-              HCHO
                     Pb+                C3H6N2O4           DCN
                     C2HF2              C2H6N2             CH4-
                     NH3-               POF3               MgSO4(L)
                     C2H3NS             C3H2+              C2O-
                     BrNO3              KrF2               SF5Cl
                     AL(cr)             HF+                C5H11OH
                     B2H6               1-C10H7-CC*        Mo(L)
                     Bi2O3              K20(g)             C3H2N
                     BH2                C3H5NO2            BCL2+
                     Bi(CH3)3           Na2O2(a)           CL3P=O-
                     P4O6               s-C5H11            CDH3
                     C8H15              C2H5F              C3H6O3
                     Ca(a)              N-                 WF2
                     C7H13              C4H7N              C7H16FO2P
                     SnCL4              CI3                C2H3F3
                     BrH2+              C8H18              C5H10O2
                     BiCl2              CH3N2              C3H9PO4
                     Ge2                POCL+              P
                     SF5Br              CL2-               cy-C5H5+
                     C8H18O             HOOOH              2-C4H10O
                     CH2-NH-CH3         C6Cl6              Cr2FeO4
                     PbCL               WO                 COC
                     C4N8O6             PF2+               SO2
                     HN2O2              N2H2               PbF4
                     p-C13H12           AlB2               FO
                     B3O3CL3            HNO4               Rn
                     HOBr               C2H2Br2            CHI2
                     CN-                C13H28             HSO+
                     C3H6O(L)           C5H8O2             SN
                     C5H4OH             BOF2               MgO(s)
                     S7                 COO                HN3O4
                     O2-                ALBr               1,2-C6H4
                     NO2+               C6D6               SbH3
                     C10H7-CCH          C5H2Cl3            D+
                     C2BR3              ALF                Ra(l)
                     C4H6,cyclo-        NOH                COHCL2
                     D-                 p-C12H9Cl          C2HCL
                     FO2                C4H8N8O8           C3H5
                     C10                NH3+               CH2OH2+
                     C24H18             BCL+               C5H3Cl3O
                     CHOH2+             CH3C(O)O-ONO2      C3H3NS
                     CHClO              CD3F               DOCL
                     C6H9               FeCL3(s)           CH5O+
                     HNO-               CDO                PbO2
                     BiF                BHF2               SB(L)
                     S(b)               C7H15              C4H2O2N-CH3
                     Cr(OH)6            Ag                 CNO
                     Cu(cr)             CL-                Xe+
                     NaCN(III)cr        C7H4(NO2)3         HALO2
                     ALBr3              HD                 GeBr4
                     C3H3-              CH2Br2             C32H14
                     SF3-               C9H20O             NCN
                     NO-                PF-                C4H5N
                     HNOH-              B2O3(cr)           C4H12Si
                     CI                 C8H9+              HgO(cr)
                     HPO                P3                 SF5
                     CH3F+              NiO(L)             S2CL2
                     P(cr)Red           C6H6N2             C12H4CL6O2
                     BrBrO              Fe-                Kr
                     ZrO2(L)            CH3F               GeS2(II)(s)
                     C7F16              Zr(L)              FCO
                     CON3               C12H9,o-bipheny    SiO2(a-qz)
                     CH3OH              BiI                MgO(L)
                     C5H12O             Cr(cr)             NO2
                     C2H4O2             ClC2H4OH           BrC2H4OH
                     W4O12              SO3-               CrCl3(S)
                     C5H4N              C4H4S              Pb(cr)
                     BI3                B(L)               C6H15PO3
                     C2H5OH(L)          C23H47             Fe(OH)3(S)
                     C7H15N3O5          HNO2-              NOO
                     SB(cr)             C14H8              BF4-
                     ZnS(g)             Na2O(c)            C14H6N6O12