"""
 Modified by J Santner to convert to cantera format
 There was an issue with tritium, I've commented all tritium compounds
 Many duplicate species are not converted to cantera due to case insensitivity

EXTENDED THIRD MILLENIUM IDEAL GAS AND CONDENSED PHASE THERMOCHEMICAL DATABASE
FOR COMBUSTION WITH UPDATES FROM ACTIVE THERMOCHEMICAL TABLES
Authors: Elke Goos, Alexander Burcat and Branko Ruscic.

This file was checked by Egil Jahnsen (Norway) <egil.jahnsen@vabb.no> for errors
and compatibility to automatic devices. Last check: July 16 2016

It is strictly forbiden to include this database as is or parts of it in any
commercial software firmware or hardware without permission from the authors.
Contact: Elke.Goos@dlr.de

*WARNING***The original 7-coeficient polynomials can accept molecules
containing only four different elements. The new CHEMKIN program was changed to
accept polynomials with 5 diferent elements. See the CHEMKIN manual.
Where the fifth element exist, the new Chemkin convention was folowed.

"""

units(length='cm', time='s', quantity='mol', act_energy='cal/mol')

ideal_gas(name='gas',
          elements="H O N Ar He C Ag Pb P F E Br Cl I D S Bi Sb Si Sn Hg Zr Na W B Al Ba",
          species="""Ag                        Ag+
                     Ag-                       AL(cr)
                     AL(L)                     AL
                     AlB2                      ALBr
                     ALBr2                     ALBr3
                     ALCL                      ALCL+
                     ALCL2                     ALCL3
                     ALF                       ALF+
                     ALF2                      ALF2-
                     ALF3                      ALH
                     ALH2                      ALH3(a)
                     ALH3                      ALO
                     ALO+                      ALO-
                     ALOH                      HALO
                     ALO2                      ALO2-
                     HALO2                     AL(OH)2
                     AL(OH)3                   AL2
                     AL2O                      AL2O+
                     AL2O2                     AL2O2+
                     AL2O3(a)                  AL2O3(b)
                     AL2O3(L)                  AL2O3
                     AR                        Ar+
                     ArH                       ArH+
                     B(S)                      B(L)
                     B                         BBr
                     BBr2                      BBr3
                     BCL                       BCL+
                     BFCL                      BF2CL
                     BCL2                      BCL2+
                     BFCL2                     BCL3
                     BF                        BF2
                     BF2+                      BF2-
                     BF3                       BF4-
                     BH                        BHF2
                     BH2                       BH3
                     BH4                       BH5
                     BI                        BI2
                     BI3                       BO
                     BO-                       BOCL
                     BOCL2                     BOF
                     BOF2                      BO2
                     BO2-                      B2
                     B2CL4                     B2F4
                     B2H                       B2H2
                     B2H6                      B2O
                     B2O2                      B2O3(cr)
                     B2O3                      B3O3CL3
                     B3O3F3                    H3B3O3
                     H3B3O6                    BAO(G)
                     Bi(S)                     Bi(L)
                     Bi+                       BiCl
                     BiCl2                     BiCl3
                     BiF                       BiF2
                     BiF3                      BiH3
                     BiI                       Bi(OH)3
                     BiO                       Bi2O3
                     Br                        Br+
                     Br-                       BrCL
                     DBr                       DOBR
                     BrF                       BrF3
                     BrF5                      HBr
                     HBr+                      HOBr
                     HOBr+                     BrH2+
                     BrI                       BrNO2
                     BrNO3                     BrO
                     BrO+                      BrO-
                     BrO2                      OBrO
                     BrO3                      BrS
                     Br2(cr)                   Br2(L)
                     Br2                       Br2+
                     Br2-                      BrBrO
                     BrOBr                     Br2S
                     PBr3                      PBr3+
                     C(GR)                     C(cr)
                     C                         C+
                     C-                        CBR
                     CBrCLF2                   CBrCL2F
                     CBRCL3                    CBrF3
                     BRCN                      BrCN+
                     BrNC                      CBr2
                     CBr2CLF                   CBr2Cl2
                     CBr2F2                    CBr2O
                     CBr3                      CBR3CL
                     CFBr3                     CBr4
                     CCL                       CCl+
                     CCl-                      CD3Cl
                     CCLF                      COFCL
                     CCLF2                     CCLF3
                     CLCN                      ClCN+
                     CLNC                      COCL
                     CCl2                      CCl2+
                     CCL2F                     CCL2F2
                     COCL2                     CCl3
                     CCL3F                     CCL3NO2
                     CCL3O*                    CCl4
                     CD                        CDClO
                     CDH3                      DCN
                     DN=C=O                    CDO
                     CD2                       CD2O
                     CD3                       CD3F
                     D2N-DC=O                  CD3NO2
                     CD4                       CD3OD
                     CD5N                      CF
                     CF+                       CF-
                     FCN                       FCN+
                     FNC                       FCO
                     FCO+                      CFO-
                     CF2                       CF2+
                     CF2-                      COF2
                     COF2+                     COF2-
                     FCOF                      CF3
                     CF3+                      CF3-
                     CF3I                      CF3O
                     CF3O2                     CF4
                     CH                        CH+
                     CH-                       CHBR
                     CHBrClF                   CHBrCL2
                     CHF2Br                    CHBR2
                     CHBr2CL                   CHBr2F
                     CHBr3                     CHCL
                     CHCLF                     CHCLF2
                     CHClO                     CHCL2
                     CHFCL2                    COHCL2
                     CHCL3                     CCl3OH
                     CHD2NO2                   CHD3
                     CHF                       CHF+
                     CHF-                      HFCO
                     HFCO+                     CHF2
                     CHF3                      CHI2
                     CHI3                      HCN
                     HCN+                      HCN-
                     HNC                       HNC+
                     HNCO                      HNCO+
                     HOCN                      HCNO
                     HCNO+                     HONC
                     HNCN                      CHN2
                     CHON3                     CH(NO2)3
                     CHO                       CHO+
                     HCO-                      COH
                     COH-                      CHOS
                     COOH                      HOCO
                     HOCO+                     HOCO-
                     HCOO                      CHO2-
                     HC(OO)                    HCO3-
                     CHO3                      CHP
                     HCS                       CH2
                     CH2+                      CH2-
                     CH2ClBr                   CH2BrF
                     CH2BrI                    CH2Br2
                     CH2CL                     CH2CLF
                     CH2CL2                    CH2DNO2
                     CH2D2                     CH2F
                     CH2F2                     CH2N
                     H2CN+                     CH2N*-
                     HCNH+                     CH2N-
                     CNH2                      CNH2+
                     H2NC=O                    CH2NO
                     H2CNO                     *CH2NO2
                     *CH2ONO2                  CH2N2
                     H2CN2                     CH2N2O
                     CH2N2O2                   CH2(NO2)2
                     CH2N4                     HCHO
                     CH2O+                     H2CO-Formald
                     CHOH                      CH2O
                     CH2O-                     CH2OS
                     CH2SO                     CH2O2(L)
                     HCOOH                     CH2O2
                     CH2O2-                    CH2OO
                     CH2OO+                    CH2O2+
                     CH2PH                     CH2=S
                     CH2S2                     CH3
                     CH3+                      CH3-
                     CH3Br                     CH3Br+
                     CH3CL                     CH3Cl+
                     CH3OD                     CH3F
                     CH3F+                     CH3PF2=O
                     CH3Hg                     CH3I
                     CH3I+                     CH3N
                     CH2NH+                    CH3N+
                     CH3N-                     HCNH2
                     CHNH2+                    CHNH2-
                     CH3NO                     CH3NO2
                     CH3NO2-                   CH3ONO
                     CH3ONO2                   CH3N2*
                     CH3N2                     CH3N2O3
                     CH3N3                     CH3N3O4
                     CH3O                      CH3O+
                     CH3O-                     CH2OH
                     CH2OH+                    CH2OH-
                     CHOH2+                    CH3OS
                     CH3O2                     CH3OO+
                     CH3OO-                    CH3S
                     CH3SS                     CH4
                     CH4+                      CH4-
                     CH3NH                     CH3NH-
                     *CH2NH2                   *CH2NH2+
                     *CH2NH2-                  CH4N2
                     CH4N2O                    CH4N4O2
                     (NH2)2C=N-NO2             CH3OH(L)
                     CH3OH                     CH4O+
                     CH3OH-                    CH2OH2
                     CH2OH2+                   CH4OS
                     CH4O2                     CH3SH
                     CH4S2                     CH4S3
                     CH5+                      CH5N
                     CH3NH2+                   CH3NH2-
                     CH5N2                     CH5N3
                     CH5O+                     CH5OP
                     CH5OP+                    CH5OP-
                     CH3PH2                    CH5P+
                     CH5P-                     CH6N+
                     CH3-NH-NH2                CH6P
                     CH3PH3+                   CH6P-
                     CH6P2                     CH6P2+
                     CH3SnH3                   CI
                     CI2                       CI3
                     CI4                       ICN
                     CN                        CN+
                     CN-                       CNO
                     CNO+                      CNO-
                     C(NO)                     C(NO)+
                     C(NO)-                    CNN
                     CNN+                      CNN-
                     NCN                       NCN+
                     NCN-                      C(NN)
                     CON3                      C(NO2)4
                     NaCN(III)cr               NaCN(L)
                     CO                        CO+
                     CO-                       COS
                     CO2                       CO2+
                     CO2-                      COO
                     COO+                      COO-
                     C(OO)+                    CO3-
                     PC                        PC+
                     PC-                       CS
                     CS2                       WC(cr)
                     ZrC(cr)                   ZrC(L)
                     C2                        C2+
                     C2-                       C2BR
                     C2Br2                     C2Br2F4
                     C2BR3                     C2BR4
                     C2BR5                     C2BR6
                     C2CL                      C2CL2
                     C2Cl2F2                   C2CL2F4
                     C2CL3                     C2Cl3F3
                     C2Cl4                     C2CL4+
                     C2Cl5                     C2CL5F
                     C2Cl6                     C2D
                     C2D2                      C2D2O
                     C2D4                      C2D4O
                     C2D6                      C2D6N2
                     C2D6O                     C2F
                     C2F2                      C2F3
                     C2F4                      C2F5
                     C2F6                      C2F6O2
                     C2H                       C2H+
                     C2H-                      C2HBr
                     C2HBr2                    C2HBr3
                     C2HBR4                    C2HBr5
                     C2HCL                     C2HCLF
                     C2HCLF2-1,1               C2HClF2
                     C2HFCL2                   CF2H-CCLF2
                     CF3-CHCLF                 CF3-CHCL2
                     CF2CL-CHCLF               CCL2F-CHF2
                     C2HCl3                    C2HCL4
                     C2HCL5                    C2DH
                     C2HF                      C2HF+
                     C2HF2                     C2HF3
                     C2HF5                     HCCN
                     NCCHO                     HCCNO2
                     NO2HCCNO2                 C2HN7O2
                     HCCO                      C2HO
                     C2HO3                     C2HS
                     C2H2                      C2H2-
                     C2H2+                     C2H2Br2
                     CHBr2CHBr2                CHCL=CH*
                     C2H2FCl                   C2H2CL2
                     C2H2Cl3                   C2H2F2
                     1,2-C2H2F2-cis            1,2-C2H2F2-trans
                     C2H2F3                    C2H2F4
                     C2H2I2                    C2H2(NO2)2
                     CH2CN                     CH2NC
                     NCCH2O                    NCCH2OO
                     CH2CO                     C2H2O
                     C2H2O+                    HCC-OH
                     C2H2O2                    O(CH)2O
                     O=COH-CH=O                C2H2O4
                     C2H2S                     C2H2S3
                     C2H3                      C2H3+
                     C2H3-                     CH3C
                     CH3C+                     CH3C-
                     C2H3Br                    CH2BRCOOH
                     CH3CBr3                   C2H3CL
                     C2H3ClN2                  CH3COCL
                     C2H3CLO2                  CH3CCl3
                     C2H3F                     C2H3F2
                     C2H3F3                    CH3CD3
                     C2H3I                     CH3CN
                     CH3NC                     NCCH2OH
                     C2H3N                     NCCH2OOH
                     NITROETHYLENE             CH2=CH-NO2
                     CH3C(O)O-NO2              CH3C(O)O-ONO2
                     C2H3NS                    C2H3N3
                     CH3CO                     CH3CO+
                     C2H3O-                    CH2=CHO*
                     C2H3O2                    C2H3O
                     C2H4                      C2H4+
                     CH3CH                     CH3CH-
                     CH2Br-CH2Br               CH3-CHBr2
                     C2H4Cl                    C2H4ClF
                     CH2Cl-CH2Cl               C2H4Cl2
                     C2H4O2CL2                 C2H4F
                     C2H4F2                    (CH2I)2
                     *C(O)CH2NH2               1,2-C2H4(NO2)2
                     C2H3OH                    C2H4O
                     CH3CHO                    C2H4O-
                     C2H4O2                    C2H4O2(L)
                     CH3COOH                   C2H4O2+
                     C2H4O3                    (HCOOH)2
                     C2H4S                     CH3-S-CH=S
                     C2H4S4                    C2H5
                     C2H5+                     C2H5-
                     C2H5Br                    BrC2H4OH
                     C2H5CL                    ClC2H4OH
                     C2H5CLO2                  C2H5F
                     FC2H4OH                   C2H5I
                     IC2H4OH                   C2H3NH2
                     C2H5N                     NH2CH2C(O)OH
                     C2H5NO2                   CH3-O-C(O)-NH2
                     C2H5NO3                   C2H5N3
                     C2H5N3O5                  C2H5O
                     C2H5O-                    C2H5O+
                     C2H5O2                    C2H4OOH
                     C2H5S                     C2H6
                     C2H6+                     C2H6-
                     Bi(CH3)2                  CH3-N*-CH3
                     C2H7+                     CH2-NH-CH3
                     C2H6N                     C2H6N2
                     (CH3)2N-NO2               C2H5OH(L)
                     C2H5OH                    C2H5OH+
                     C2H6O                     C2H6O+
                     C2H6OS                    C2H6O2
                     CH3OOCH3                  C2H6S
                     C2H6S2                    SB(CH3)2
                     CH3-NH-CH3                C2H5NH2
                     (CH3)2N-NH*               *CH2(CH3)-N-NH2
                     C2H7O+                    C2H7PO3
                     C2H7PO3+                  C2H7P
                     C2H7P+                    C2H7P-
                     CH3-NH-NH-CH3             (CH3)2-N-NH2
                     C2H5PH3                   C2H5PH3+
                     C2H5PH3-                  CCN
                     C2N+                      C2N-
                     CNC                       C2N
                     OCCN                      C2N2
                     C2N2+                     N=N-CC-
                     CNCN                      CNCN+
                     CNCN-                     C2N2Hg
                     Hg(CNO)2                  C2(NO2)2
                     C2(NO2)4                  C2N6O3
                     C2(NO2)6                  COC
                     COC+                      C2O-
                     C2O                       CCO
                     CCO+                      CCO-
                     C2S2                      C3
                     C3+                       C3-
                     C3Br2                     C3BR3
                     C3Br4                     ClC*=C=CCl*
                     (-ClC=C=CCl-)             C3Cl3
                     Cl2C=C=CCL(O*)            C3CL4
                     C3D4                      C3D6
                     C3D6O                     C3F
                     C3F3                      C3F4
                     C3F6                      C3F7
                     C3F8                      C3H
                     C3HBr2*                   C3HBr2*1,1-RadicalT02/08
                     C3HBr2O*                  C3HBr3
                     C3HCl2*                   C3HCl2*1,1-RadicalT02/08
                     ClHC=C=CCl(O*)            Cl2C=C=CH(O*)
                     C3HCL3                    C3F7H
                     C3HN                      C3H2
                     C3H2-                     C3H2(3)
                     C3H2(1)                   C3H2+
                     C3H2BR2                   C3H2Cl
                     C3H2CL2                   C3HCl2OH
                     C3H2F3                    C3H2F4
                     C3H2N                     C3H2N4O4
                     C3H3                      C3H3+
                     C3H3-                     C3H3Cl
                     C3H3F2                    C3H3F3
                     C3H3I                     C3H3N
                     C3H3ON                    C3H3NS
                     NSC3H3                    C3H3N3
                     C3H3O                     H4C3
                     C3H4                      C3H4Cl
                     ClC3H4                    C3H4N
                     C3H4N2                    C3H4N4O6
                     C3H4O                     C3H4O2
                     C3H4S                     C3H5
                     T-C3H5                    S-C3H5
                     C3H5Cl                    C3H5N
                     NITROPROPYLENE            C3H5NO2
                     C3H5NO4                   NITROGLICERINE
                     C3H5O                     C3H5O2
                     C3H6                      N-NITRO-AZETIDIN
                     C3H6N2O4                  C3H6(NO2)2
                     C3H6N5O4                  RDX
                     C3H5OH                    C3H6O
                     C3H6O(L)                  C3H6O2
                     C3H6O3                    C3H6S
                     1,3-C3H6S2                C3H7
                     C3H7I                     C3H5NH2
                     C3H7N                     C3H7NO2
                     C3H7NO3                   C3H7N3O5
                     C3H7O                     C3H7O+
                     C3H7OO                    C3H7O2
                     C3H7S                     C3H8
                     C3H8O                     C3H8O+
                     C3H8O2                    CH3-O-CH2-O-CH3
                     C3H8O3                    C3H8S
                     Bi(CH3)3                  C3H9N
                     C3H9O+                    C3H9PO3
                     C3H9PO3+                  C3H9PO3-
                     C3H9PO4                   C3H9P
                     C3H9P+                    C3H9P-
                     SB(CH3)3                  C3H9Si
                     C3H10Si                   C3N2O
                     C3N3P                     C3N3P+
                     C3N3P-                    C3O2
                     C3O2+                     C4
                     C4CL2                     C4CL6
                     C4D6                      C4F2
                     C4F6                      C4F8
                     C4F10                     C4H
                     C4H2                      C4H2+
                     C4H2N2                    C4H2S
                     C4H3                      C4H4
                     C4H4N                     C4H4N-
                     C4H4N2                    C4H4N2O2
                     C4H4O                     C4H4O2
                     C4H4O4                    C4H4S
                     C4H5                      C4H5+
                     C4H5N                     C4H5N3O
                     C4H5O                     C4H5O2
                     C4H6                      C4H6,cyclo-
                     C4H6Cl2                   C4H6N4O12
                     C4H6N8O8                  C4H6O
                     C4H6O2                    C4H6O4
                     CH3-CO-O-O-CO-CH3         C4H6S
                     C4H7                      C4H7N
                     C4H7N3O9                  C4H7O
                     C4H7O2                    1-C4H8
                     C4H8                      C4H8,tr2-butene
                     C4H8,cis2-buten           MUSTARD
                     beta                      C4H8N8O8
                     C4H8O                     C4H8O2
                     (CH3COOH)2                C4H7OOH
                     C4H8O4                    C4H8S
                     C4H8S2                    C4H9
                     C4H9N                     C4H9NO2
                     C4H9N3O5                  C4H9O
                     C4H9O+                    C4H9O2
                     C4H10                     C4H10FO2P
                     C4H10N2                   C4H10O
                     2-C4H10O                  T-C4H10O
                     n-C4H10O2                 C4H10O2
                     C4H10O3                   C4H10O4
                     C4H10S                    C4H11O+
                     C4H11P                    C4H11P+
                     C4H11P-                   C4H12Si
                     C4H12Si+                  (C2H5)2SiH2+
                     Sn(CH3)4                  H2Sn(C2H5)2
                     C4N2                      C4N8O6
                     C5                        C5Cl6
                     C5F6                      C5F12
                     C5H                       C5H2
                     C5H2Cl2O                  C5H2Cl3
                     C5H2N3O6*                 C5H3
                     C5H3+                     C5H3CL3
                     C5H3Cl3O                  C5H3N
                     C5H4                      C5H4N
                     C4H3N2O2-COOH             C5H4N4
                     C5H4O                     C5H4O2
                     C5H5                      C5H5+
                     cy-C5H5+                  C5H5-
                     C5H5N                     C5H5NO2
                     C4H2O2N-CH3               C4H4N-COOH
                     C5H5N5                    C5H5N5O
                     C5H4OH                    C5H5O
                     C5H5O2                    C5H6
                     C5H6N2                    C5H6N2O2
                     C5H5OH                    C5H6O
                     C5H6O2                    C5H7
                     C5H7CL                    C5H7CL2
                     C5H7NO                    C5H7O
                     C5H8                      C5H8CL
                     PETN                      C5H8N4O12
                     C5H8O                     C5H8O2
                     C5H8O4                    C5H9
                     C5H9NO4                   C5H9N
                     C5H9O2                    C5H10
                     C5H10,cyclo-              C5H9OH
                     C5H10N2O3                 C5H10O
                     C5H10O2                   C5H10O3
                     n-C5H11                   s-C5H11
                     t-C5H11                   C5H11
                     C5H11N                    NITRO-PENTANE
                     C5H11O2N2P                C5H11N3O5
                     C5H11O+                   C5H12
                     C5H12,i-pentane           CH3C(CH3)2CH3
                     C5H11OH                   C5H12O
                     C5H12O(L)                 C5H12O2
                     C5H13O+                   C5N4
                     C6                        C6Cl6
                     C6D5,phenyl               C6D6
                     C6F6                      C6F14
                     C6H                       C6HCl5
                     C6H2                      C6H2CL3O
                     C6HCL3OH                  C6H2Cl3O3
                     1,2,3,4-C6H2Cl4           1,2,3,5-C6H2Cl4
                     C6H2N3O6                  C6H2N3O7
                     C6H3                      o-C6H3
                     1,2,3,C6H3Cl3             1,3,5-C6H3Cl3
                     C6H3CL3O                  C6H2Cl3OOH
                     o-C6H3I                   C6H3N2O4
                     TRI-NITRO                 C6H3N3O7
                     1,2-C6H4                  1,2-C6H4-
                     1,3-C6H4                  1,4-C6H4
                     1,5-C6H4                  C6H4
                     1,2,3-C6H4-5-yne          O-CHLOROPHENYL
                     m-CHLOROPHENYL            P-CHLOROPHENYL
                     C6H4ClO                   o-C6H4ClO
                     C6H4Cl2                   2,4-C6H4Cl2O
                     o-C6H4I                   o-C6H4I2
                     m-C6H4I2                  p-C6H4I2