! Modified from Dryer's mechanism
!   By Ramanan Sankaran - 02/08/05
! chem.inp for CO/H2 combustion
!
! Authors: J. Li, Z. Zhao, A. Kazakov, F.L. Dryer, 
! Address: Dept. of Mechanical and Aerospace Engineering, Princeton University, Princeton, NJ 08544
!
!  modified by evatt - started from CO, and ripped out all carbon


ELEMENTS
H O N
END

SPECIES
H2 O2 O OH H2O H HO2 H2O2 N2 
END

THERMO ALL
0300.00   1000.00 5000.00
HO2               L 5/89H   1O   2   00   00G   200.000  3500.000  1000.000    1
 4.01721090E+00 2.23982013E-03-6.33658150E-07 1.14246370E-10-1.07908535E-14    2
 1.11856713E+02 3.78510215E+00 4.30179801E+00-4.74912051E-03 2.11582891E-05    3
-2.42763894E-08 9.29225124E-12 2.94808040E+02 3.71666245E+00 1.00021620E+04    4
H                 120186H   1               G  0300.00   5000.00  1000.00      1
 0.02500000E+02 0.00000000E+00 0.00000000E+00 0.00000000E+00 0.00000000E+00    2
 0.02547163E+06-0.04601176E+01 0.02500000E+02 0.00000000E+00 0.00000000E+00    3
 0.00000000E+00 0.00000000E+00 0.02547163E+06-0.04601176E+01                   4
H2                121286H   2               G  0300.00   5000.00  1000.00      1
 0.02991423E+02 0.07000644E-02-0.05633829E-06-0.09231578E-10 0.01582752E-13    2
-0.08350340E+04-0.01355110E+02 0.03298124E+02 0.08249442E-02-0.08143015E-05    3
-0.09475434E-09 0.04134872E-11-0.01012521E+05-0.03294094E+02                   4
H2O                20387H   2O   1          G  0300.00   5000.00  1000.00      1
 0.02672146E+02 0.03056293E-01-0.08730260E-05 0.01200996E-08-0.06391618E-13    2
-0.02989921E+06 0.06862817E+02 0.03386842E+02 0.03474982E-01-0.06354696E-04    3
 0.06968581E-07-0.02506588E-10-0.03020811E+06 0.02590233E+02                   4
H2O2              120186H   2O   2          G  0300.00   5000.00  1000.00      1
 0.04573167E+02 0.04336136E-01-0.01474689E-04 0.02348904E-08-0.01431654E-12    2
-0.01800696E+06 0.05011370E+01 0.03388754E+02 0.06569226E-01-0.01485013E-05    3
-0.04625806E-07 0.02471515E-10-0.01766315E+06 0.06785363E+02                   4
O                 120186O   1               G  0300.00   5000.00  1000.00      1
 0.02542060E+02-0.02755062E-03-0.03102803E-07 0.04551067E-10-0.04368052E-14    2
 0.02923080E+06 0.04920308E+02 0.02946429E+02-0.01638166E-01 0.02421032E-04    3
-0.01602843E-07 0.03890696E-11 0.02914764E+06 0.02963995E+02                   4
O2                121386O   2               G  0300.00   5000.00  1000.00      1
 0.03697578E+02 0.06135197E-02-0.01258842E-05 0.01775281E-09-0.01136435E-13    2
-0.01233930E+05 0.03189166E+02 0.03212936E+02 0.01127486E-01-0.05756150E-05    3
 0.01313877E-07-0.08768554E-11-0.01005249E+05 0.06034738E+02                   4
N2                121286N   2               G  0300.00   5000.00  1000.00      1
 0.02926640E+02 0.01487977E-01-0.05684761E-05 0.01009704E-08-0.06753351E-13    2
-0.09227977E+04 0.05980528E+02 0.03298677E+02 0.01408240E-01-0.03963222E-04    3
 0.05641515E-07-0.02444855E-10-0.01020900E+05 0.03950372E+02                   4
OH                S 9/01O   1H   1    0    0G   200.000  6000.000 1000.        1
 2.86472886E+00 1.05650448E-03-2.59082758E-07 3.05218674E-11-1.33195876E-15    2
 3.68362875E+03 5.70164073E+00 4.12530561E+00-3.22544939E-03 6.52764691E-06    3
-5.79853643E-09 2.06237379E-12 3.34630913E+03-6.90432960E-01 4.51532273E+03    4
END

REACTIONS

! ************ H2-O2 Chain Reactions **********************

! Hessler, J. Phys. Chem. A, 102:4517 (1998)
H+O2=O+OH                 3.547e+15 -0.406  1.6599E+4

! Sutherland et al., 21st Symposium, p. 929 (1986)
O+H2=H+OH                 0.508E+05  2.67  0.629E+04

! Michael and Sutherland, J. Phys. Chem. 92:3853 (1988)
H2+OH=H2O+H               0.216E+09  1.51  0.343E+04

! Sutherland et al., 23rd Symposium, p. 51 (1990)
O+H2O=OH+OH               2.97e+06   2.02  1.34e+4

! *************** H2-O2 Dissociation Reactions ******************

! Tsang and Hampson, J. Phys. Chem. Ref. Data, 15:1087 (1986)
H2+M=H+H+M                4.577E+19 -1.40  1.0438E+05
   H2/2.5/ H2O/12/

! Tsang and Hampson, J. Phys. Chem. Ref. Data, 15:1087 (1986)
O+O+M=O2+M                6.165E+15 -0.50  0.000E+00
   H2/2.5/ H2O/12/

! Tsang and Hampson, J. Phys. Chem. Ref. Data, 15:1087 (1986)
O+H+M=OH+M                4.714E+18 -1.00  0.000E+00
   H2/2.5/ H2O/12/

! Tsang and Hampson, J. Phys. Chem. Ref. Data, 15:1087 (1986)
!H+OH+M=H2O+M              2.212E+22 -2.00  0.000E+00
H+OH+M=H2O+M               3.800E+22 -2.00  0.000E+00
   H2/2.5/ H2O/12/

!************** Formation and Consumption of HO2******************

! Cobos et al., J. Phys. Chem. 89:342 (1985) for kinf
! Michael, et al., J. Phys. Chem. A, 106:5297 (2002) for k0

!******************************************************************************
! MAIN BATH GAS IS N2 (comment this reaction otherwise)
!
 H+O2(+M)=HO2(+M)      1.475E+12  0.60  0.00E+00
     LOW/6.366E+20  -1.72  5.248E+02/
     TROE/0.8  1E-30  1E+30/
     H2/2.0/ H2O/11./ O2/0.78/

! Tsang and Hampson, J. Phys. Chem. Ref. Data, 15:1087 (1986) [modified]
HO2+H=H2+O2               1.66E+13   0.00   0.823E+03

! Tsang and Hampson, J. Phys. Chem. Ref. Data, 15:1087 (1986) [modified]
HO2+H=OH+OH               7.079E+13   0.00   2.95E+02

! Baulch et al., J. Phys. Chem. Ref Data, 21:411 (1992)
HO2+O=O2+OH               0.325E+14  0.00   0.00E+00

! Keyser, J. Phys. Chem. 92:1193 (1988)
HO2+OH=H2O+O2             2.890E+13  0.00 -4.970E+02

! ***************Formation and Consumption of H2O2******************

! Hippler et al., J. Chem. Phys. 93:1755 (1990)
HO2+HO2=H2O2+O2            4.200e+14  0.00  1.1982e+04
  DUPLICATE
HO2+HO2=H2O2+O2            1.300e+11  0.00 -1.6293e+3
  DUPLICATE

! Brouwer et al., J. Chem. Phys. 86:6171 (1987) for kinf
! Warnatz, J. in Combustion chemistry (1984) for k0
H2O2(+M)=OH+OH(+M)         2.951e+14   0.00  4.843E+04
  LOW/1.202E+17  0.00  4.55E+04/
  TROE/0.5 1E-30 1E+30/
  H2/2.5/ H2O/12/

! Tsang and Hampson, J. Phys. Chem. Ref. Data, 15:1087 (1986)
H2O2+H=H2O+OH             0.241E+14  0.00  0.397E+04

! Tsang and Hampson, J. Phys. Chem. Ref. Data, 15:1087 (1986)
H2O2+H=HO2+H2             0.482E+14  0.00  0.795E+04

! Tsang and Hampson, J. Phys. Chem. Ref. Data, 15:1087 (1986)
H2O2+O=OH+HO2             9.550E+06  2.00  3.970E+03

! Hippler and Troe, J. Chem. Phys. Lett. 192:333 (1992)
H2O2+OH=HO2+H2O           1.000E+12  0.00  0.000
    DUPLICATE
H2O2+OH=HO2+H2O           5.800E+14  0.00  9.557E+03
    DUPLICATE


END

TRANSPORT

CO                 1    98.100     3.650     0.000     1.950     1.800
H2O                2   572.400     2.605     1.844     0.000     4.000
H2                 1    38.000     2.920     0.000     0.790   280.000
CO2                1   244.000     3.763     0.000     2.650     2.100
O2                 1   107.400     3.458     0.000     1.600     3.800
H2O2               2   107.400     3.458     0.000     0.000     3.800
OH                 1    80.000     2.750     0.000     0.000     0.000
HO2                2   107.400     3.458     0.000     0.000     1.000 ! *
H                  0   145.000     2.050     0.000     0.000     0.000
O                  0    80.000     2.750     0.000     0.000     0.000
AR                 0   136.500     3.330     0.000     0.000     0.000
N2                 1    97.530     3.621     0.000     1.760     4.000
HE                 0    10.200     2.576     0.000     0.000     0.000 ! *

END