"""
Special edition mashup created by ME Fuller 18 MAY 2018
Add Glarborg PECS 2018 nitrogen chemistry with Fuller & goldsmith ProCI mods
Add propyl nitrate 27 MAY 2018

v2 revises reaction 1381, comments out reaction 635
R635 needs to be removed for flame speed calcs to converge - will investigate later
original version of R1381 also caused conversion errors; resolved on update to more recent fit

17 JAN 2019:
Add NO2 + CH3CHO = HONO/HNO2 + CH2CHO (computed in-house Fall 2017) as R1850, 1851

21 JAN 2019:
Add Annesley at al. (RST) nitromethane rates: unique reactions appended, shared values use 'RST_NM' variable to switch

23 JAN 2019:
Add Kr to file for bath gas

01 FEB 2019:
CFG: replace HOCHO with OCHOH. Only one reaction matters: CH2CHO + NO <=> HCN + HOCHO
MEF: replace C2O with CCO (updates three Glarborg rates):
    C2 + NO <=> CCO + N
    CCO + NO <=> CO + NCO
    CCO + NO2 <=> CO2 + NCO
Additional revisions marked below species list

15 FEB 2019:
Use initial fitting results from iPN to revise rate (see below)

20 FEB 2019:
Use optimized RRKM/ME results for iPN decomposition (see below)

MASTER PROPANE MODEL
177 species, 1012 reactions March 25 2013
JAM, SJK, RS, CFG, MPB EDITS JAN-MAR 2013
Glarborg PECS 2018 therm with Miller therm appended
Permissive option should use just one entry per species, can sort this out later
Mashup 18 MAY 2018 ME Fuller
Add propyl nitrate 27 MAY 2018

"""

roaming_fraction = 0.0

RST_NM = 0.0 #set to 1 to use Annesley, et al. JPCA 2015 (RST) nitromethane mechanism values

units(length='cm', time='s', quantity='mol', act_energy='cal/mol')

ideal_gas(name='gas',
          elements="H O C N Ar He Kr",
          species="""H                 H2                O
                     OH                H2O               O2
                     HO2               H2O2              AR
                     HE                N2                C
                     CH                CH2               CH2(S)
                     CH3               CH4               C2
                     C2H               C2H2              CH2C
                     C2H3              CO                C2H4
                     HCO               C2H5              CHOH
                     CHOH(T)           CH2O              C2H6
                     CH3O              CH2OH             CH3OH
                     C3H               CH2CC             CHCCH(S)
                     CHCCH             c-CHCCH           CH2CCH
                     CCO               c-CHCH2CH         CH2CCH2
                     CH3CCH            HCCO              CH2CHCH2
                     CH3CCH2           CH3CHCH
                     CHCOH             CH2CO             CHCHO
                     CH3CHCH2          c-CH2CH2CH2       CH3CO
                     CH2CHO            CHCHOH            CH3CH2CH2
                     CH3CHCH3          CO2               CH3CHO
                     CH2CHOH           c-CH2CH2O         C3H8
                     OCHO              OCOH              CH3CH2O
                     CH2CH2OH          CH3CHOH           CH3CH2OH
                     OCHOH             CH3OO             CH3OOH
                     C4H               CHCCCH            CHCHCCH
                     CH2CCCH           CH2CHCCH          CH2CHCCH2
                     CH3CCCH2          c-CH2CHCHCH       CH2CHCHCH
                     CH3CCCH3          CH2CHCHCH2        CH2CCHCH3
                     CH2CHCHO          CH3CHCO           CH2CHCH2O
                     CH2OCHCH2         CH3CH2CO          CH3C(O)CH2
                     CH3CHCHO          CH2CHCHOH         CH3CCHOH
                     CH2CCH2OH         CH3C(OH)CH        CH2CH2CHO
                     OCCHO             OCHCHO            CH3CH2CHO
                     CH3C(O)CH3        c-CH2OCH(CH3)     CH3C(OH)CH2
                     CH3CHCHOH         CH2CHCH2OH        CH2CHOO
                     CH2OCHO           CH3OCO            CH3CHCH2OH
                     CH2CH2CH2OH       CH3CH2CH2O        CH3CH(O)CH3
                     CH3CH2CHOH        CH3CH(OH)CH2      CH3C(OH)CH3
                     CH3C(O)O          CH3OCHO           CH3CH2OO
                     CH2CH2OOH         OCHCH2CH2O        c-CH2OCH(CH2O)
                     CH3CH(O)CHO       CH3C(O)CH2O       CH3CHCHOOH
                     CH3C(OOH)CH2      CH2CHCH2OOH       CH2CH2CH2OOH
                     CH3CHCH2OOH       CH3CH2CH2OO       CH3CH(OOH)CH2
                     CH3CH(OO)CH3      OHCH2CH2OO        OCHCH2CH2OOH
                     CH3C(O)CH2OOH     c-CH2OCH(CH2OOH)  CH3CH(OOH)CHO
                     CH3CH(OO)CH2OOH   CH3CH(OOH)CH2OO   OHOCH2CH2CH2OO
                     CH2CH(OOH)CH2OOH  C5H2              H2CCCCCH
                     HCCCHCCH          C5H4              C5H5
                     C5H5(L)           H2C4O             OCCHCCH
                     C5H6              C4H3O             C6H2
                     C6H4              C6H5              C6H6
                     C4H5C2H           FULVENE           CHCCH2CHCCH2
                     CH2CHCHCHCCH      C6H7              C5H4O
                     C6H813            C6H814            CH2CCHCH2CHCH2
                     CHCCH2CH2CHCH2    C5H4OH            C5H5O
                     C6H5O             C6H5OH            C6H3O2
                     PC6H4O2           OC6H4O2           C6H3O3



                     
                     NO
                     HCN               NH3               NH2
                     NH                N                 NNH
                     N2H4              N2H3              N2H2
                     H2NN              NH2OH             H2NO
                     HNOH              HNO               HON
                     NO2               HONO              HNO2
                     NO3               HONO2             N2O
                     HNC               CN                HNCO
                     HOCN              HCNO              NCO
                     NCN               HNCN              HNCNH
                     NCCN              CH3NO             CH2NO
                     C2H5NO            CH3CHNO           CH2CHNO
                     CHCHNO            CH3NO2            CH2NO2
                     C2H5NO2           CH2CH2NO2         CH3CHNO2
                     CH3ONO            CH3ONO2           CH3CH2ONO
                     CH3CH2ONO2        CH3NH2            CH2NH2
                     CH3NH             CH2NH             H2CN
                     HCNH              CH3CH2NH2         CH2CH2NH2
                     CH3CHNH2          CH3CH2NH          CH2CHNH2
                     CH3CHNH           CH2CHNH           CH2CNH2
                     CH3CNH            CH3CHN            CHCHNH2
                     CH3CN             CHCNH2            CH2CNH
                     CH2CHN            CH2CHN(S)         c-C2H3N
                     CH2CN             CHCNH             H2NCHO
                     H2NCO             CH3NHCH3          CH3NHCH2
                     CH3NCH3           CH3NCH2           CH2NCH2
                     CH3NCH            nC3H7NO3          iC3H7NO3
                     KR""",
          reactions='all',
          transport='Mix',
          initial_state=state(temperature=300.0, pressure=OneAtm))

          # from Miller:
          #c-CH2CHCH2 is not used

          # from Glarborg
          #HOCHO is the same as OCHOH
          #HCOH is the same as CHOH
          #HOCO is the same as OCOH
          #OCHCO is the same as OCCHO
          #HCCOH is CHCOH
          #H2CC is CH2C
          #HOCH2O is not used
          #CH2OOH is not stable. replaced with CH2O + OH
          #cC2H4O is c-CH2CH2O
          #cC2H3O not used
          #CH3CH2OOH is not used
          #CH3CHOOH is not used
          #CH2CHOOH is not used
          #HOCH2CH2OO is not used
          #CH2CHOOH is not used
          #HOCH2CH2OO is not used
          #CH3C(O)OOH is not used
          #CH3C(O)OO is not used

#-------------------------------------------------------------------------------
# Species data
#-------------------------------------------------------------------------------
species(name=u'KR',
        atoms='Kr:1',
        thermo=(NASA([200.00, 1000.00],
                     [ 2.50000000E+00,  0.00000000E+00,  0.00000000E+00,
                       0.00000000E+00,  0.00000000E+00, -7.45375000E+02,
                       4.37967000E+00]),
                NASA([1000.00, 6000.00],
                     [ 2.50000000E+00,  0.00000000E+00,  0.00000000E+00,
                       0.00000000E+00,  0.00000000E+00, -7.45375000E+02,
                       4.37967000E+00])),
        transport=gas_transport(geom='atom',
                                diam=3.33,
                                well_depth=136.501))
                                
species(name='H',
        atoms='H:1',
        thermo=(NASA([200.00, 1000.00],
                     [ 2.49975925E+00,  6.73824499E-07,  1.11807261E-09,
                      -3.70192126E-12,  2.14233822E-15,  2.54737665E+04,
                      -4.45574009E-01]),
                NASA([1000.00, 6000.00],
                     [ 2.49985211E+00,  2.34582548E-07, -1.16171641E-10,
                       2.25708298E-14, -1.52992005E-18,  2.54738024E+04,
                      -4.45864645E-01])),
        transport=gas_transport(geom='atom',
                                diam=1.53,
                                well_depth=541.672,
                                polar=0.666),
        note='ATcT3E')

species(name='H2',
        atoms='H:2',
        thermo=(NASA([200.00, 1000.00],
                     [ 2.37694204E+00,  7.73916922E-03, -1.88735073E-05,
                       1.95517114E-08, -7.17095663E-12, -9.21173081E+02,
                       5.47184736E-01]),
                NASA([1000.00, 6000.00],
                     [ 2.90207649E+00,  8.68992581E-04, -1.65864430E-07,
                       1.90851899E-11, -9.31121789E-16, -7.97948726E+02,
                      -8.45591320E-01])),
        transport=gas_transport(geom='linear',
                                diam=2.19,
                                well_depth=304.69,
                                polar=0.775,
                                rot_relax=280.0),
        note='ATcT3E')

species(name='O',
        atoms='O:1',
        thermo=(NASA([200.00, 1000.00],
                     [ 3.15906526E+00, -3.21509999E-03,  6.49255543E-06,
                      -5.98755115E-09,  2.06876117E-12,  2.91298453E+04,
                       2.09078344E+00]),
                NASA([1000.00, 6000.00],
                     [ 2.55160087E+00, -3.83085457E-05,  8.43197478E-10,
                       4.01267136E-12, -4.17476574E-16,  2.92287628E+04,
                       4.87617014E+00])),
        transport=gas_transport(geom='atom',
                                diam=2.485,
                                well_depth=235.686,
                                polar=0.744),
        note='ATcT3E')

species(name='OH',
        atoms='H:1 O:1',
        thermo=(NASA([200.00, 1000.00],
                     [ 3.97585165E+00, -2.28555291E-03,  4.33442882E-06,
                      -3.59926640E-09,  1.26706930E-12,  3.39341137E+03,
                      -3.55397262E-02]),
                NASA([1000.00, 6000.00],
                     [ 2.84581721E+00,  1.09723818E-03, -2.89121101E-07,
                       4.09099910E-11, -2.31382258E-15,  3.71706610E+03,
                       5.80339915E+00])),
        transport=gas_transport(geom='linear',
                                diam=2.582,
                                well_depth=514.598,
                                dipole=1.635,
                                polar=1.077),
        note='ATcT3E')

species(name='H2O',
        atoms='H:2 O:1',
        thermo=(NASA([200.00, 1000.00],
                     [ 4.20147551E+00, -2.05583546E-03,  6.56547207E-06,
                      -5.52906960E-09,  1.78282605E-12, -3.02950066E+04,
                      -8.60610906E-01]),
                NASA([1000.00, 6000.00],
                     [ 2.73117512E+00,  2.95136995E-03, -8.35359785E-07,
                       1.26088593E-10, -8.40531676E-15, -2.99169082E+04,
                       6.55183000E+00])),
        transport=gas_transport(geom='nonlinear',
                                diam=2.943,
                                well_depth=637.056,
                                dipole=1.851,
                                polar=1.407,
                                rot_relax=4.0),
        note='ATcT3E')

species(name='O2',
        atoms='O:2',
        thermo=(NASA([200.00, 1000.00],
                     [ 3.78498258E+00, -3.02002233E-03,  9.92029171E-06,
                      -9.77840434E-09,  3.28877702E-12, -1.06413589E+03,
                       3.64780709E+00]),
                NASA([1000.00, 6000.00],
                     [ 3.65980488E+00,  6.59877372E-04, -1.44158172E-07,
                       2.14656037E-11, -1.36503784E-15, -1.21603048E+03,
                       3.42074148E+00])),
        transport=gas_transport(geom='linear',
                                diam=3.069,
                                well_depth=676.424,
                                polar=1.487,
                                rot_relax=3.8),
        note='ATcT3E')

species(name='HO2',
        atoms='H:1 O:2',
        thermo=(NASA([200.00, 1000.00],
                     [ 4.26251250E+00, -4.45642032E-03,  2.05164934E-05,
                      -2.35794011E-08,  9.05614257E-12,  2.62442356E+02,
                       3.88223684E+00]),
                NASA([1000.00, 6000.00],
                     [ 4.10564010E+00,  2.04046836E-03, -3.65877562E-07,
                       1.85973044E-11,  4.98818315E-16,  4.32898769E+01,
                       3.30808126E+00])),
        transport=gas_transport(geom='nonlinear',
                                diam=3.129,
                                well_depth=963.003,
                                dipole=2.146,
                                polar=1.959,
                                rot_relax=3.8),
        note='ATcT3E')

species(name='H2O2',
        atoms='H:2 O:2',
        thermo=(NASA([200.00, 1000.00],
                     [ 4.23854160E+00, -2.49610911E-04,  1.59857901E-05,
                      -2.06919945E-08,  8.29766320E-12, -1.76486003E+04,
                       3.58850097E+00]),
                NASA([1000.00, 6000.00],
                     [ 4.54017480E+00,  4.15970971E-03, -1.30876777E-06,
                       2.00823615E-10, -1.15509243E-14, -1.79514029E+04,
                       8.55881745E-01])),
        transport=gas_transport(geom='nonlinear',
                                diam=3.179,
                                well_depth=1361.148,
                                dipole=1.702,
                                polar=2.239,
                                rot_relax=3.8),
        note='ATcT3E')

species(name='AR',
        atoms='Ar:1',
        thermo=(NASA([200.00, 1000.00],
                     [ 2.49988611E+00,  2.13037960E-07,  8.97320772E-10,
                      -2.31395752E-12,  1.30201393E-15, -7.45354481E+02,
                       4.38024367E+00]),
                NASA([1000.00, 6000.00],
                     [ 2.49989176E+00,  1.56134837E-07, -7.76108557E-11,
                       1.52928085E-14, -1.05304493E-18, -7.45328403E+02,
                       4.38029835E+00])),
        transport=gas_transport(geom='atom',
                                diam=3.462,
                                well_depth=127.697,
                                polar=1.609,
                                rot_relax=2.0),
        note='ATcT3E')

species(name='HE',
        atoms='He:1',
        thermo=(NASA([200.00, 1000.00],
                     [ 2.49976293E+00,  1.01013432E-06, -8.24578465E-10,
                      -6.85983306E-13,  7.24751856E-16, -7.45340917E+02,
                       9.29800315E-01]),
                NASA([1000.00, 6000.00],
                     [ 2.49985609E+00,  2.19365392E-07, -1.07525085E-10,
                       2.07198041E-14, -1.39358612E-18, -7.45309155E+02,
                       9.29535014E-01])),
        transport=gas_transport(geom='atom',
                                diam=2.715,
                                well_depth=11.442,
                                polar=0.204,
                                rot_relax=2.0),
        note='ATcT3E')

species(name='N2',
        atoms='N:2',
        thermo=(NASA([200.00, 1000.00],
                     [ 3.53603521E+00, -1.58270944E-04, -4.26984251E-07,
                       2.37542590E-09, -1.39708206E-12, -1.04749645E+03,
                       2.94603724E+00]),
                NASA([1000.00, 6000.00],
                     [ 2.93802970E+00,  1.41838030E-03, -5.03281045E-07,
                       8.07555464E-11, -4.76064275E-15, -9.17180990E+02,
                       5.95521985E+00])),
        transport=gas_transport(geom='linear',
                                diam=3.61,
                                well_depth=97.839,
                                polar=1.756,
                                rot_relax=4.0),
        note='ATcT3E')

species(name='C',
        atoms='C:1',
        thermo=(NASA([200.00, 1000.00],
                     [ 2.55137539E+00, -2.99926279E-04,  6.79034717E-07,
                      -6.75577360E-10,  2.46000780E-13,  8.54693281E+04,
                       4.54305445E+00]),
                NASA([1000.00, 6000.00],
                     [ 2.60607421E+00, -1.96384226E-04,  1.06809851E-07,
                      -1.64080163E-11,  8.15424248E-16,  8.54378446E+04,
                       4.18935196E+00])),
        transport=gas_transport(geom='atom',
                                diam=1.849,
                                well_depth=1609.601,
                                polar=1.748),
        note='ATcT3E')

species(name='CH',
        atoms='C:1 H:1',
        thermo=(NASA([200.00, 1000.00],
                     [ 3.49602032E+00,  2.77423807E-04, -1.57433829E-06,
                       3.07038632E-09, -1.40468135E-12,  7.06500301E+04,
                       2.05802158E+00]),
                NASA([1000.00, 6000.00],
                     [ 2.74988924E+00,  1.36248089E-03, -2.71161485E-07,
                       2.47828427E-11, -1.18067699E-15,  7.08999411E+04,
                       6.13979299E+00])),
        transport=gas_transport(geom='linear',
                                diam=2.676,
                                well_depth=569.314,
                                dipole=1.489,
                                polar=2.271),
        note='ATcT3E')

species(name='CH2',
        atoms='C:1 H:2',
        thermo=(NASA([200.00, 1000.00],
                     [ 3.74842895E+00,  1.07655977E-03,  3.62462012E-06,
                      -4.46165519E-09,  1.95224874E-12,  4.58990472E+04,
                       1.63509483E+00]),
                NASA([1000.00, 6000.00],
                     [ 2.81412990E+00,  3.79513443E-03, -7.38424949E-07,
                       7.19948955E-11, -2.63188525E-15,  4.61859709E+04,
                       6.52945537E+00])),
        transport=gas_transport(geom='nonlinear',
                                diam=3.458,
                                well_depth=289.283,
                                dipole=0.593,
                                polar=2.137),
        note='(t)ATcT3E')

species(name='CH2(S)',
        atoms='C:1 H:2',
        thermo=(NASA([200.00, 1000.00],
                     [ 4.18489675E+00, -2.16396813E-03,  7.68523621E-06,
                      -5.98243427E-09,  1.67910304E-12,  5.03923371E+04,
                      -7.17772105E-01]),
                NASA([1000.00, 6000.00],
                     [ 2.86931299E+00,  3.39756979E-03, -1.00599964E-06,
                       1.50562822E-10, -8.61237607E-15,  5.06285244E+04,
                       5.53163503E+00])),
        transport=gas_transport(geom='nonlinear',
                                diam=3.225,
                                well_depth=663.955,
                                dipole=1.668,
                                polar=2.412),
        note='ATcT3E')

species(name='CH3',
        atoms='C:1 H:3',
        thermo=(NASA([200.00, 1000.00],
                     [ 3.61264389E+00,  3.09209041E-03,  9.25474611E-07,
                      -1.65776770E-09,  6.07243533E-13,  1.63849955E+04,
                       1.79994780E+00]),
                NASA([1000.00, 6000.00],
                     [ 2.92198336E+00,  5.37478625E-03, -1.99748367E-06,
                       2.97584806E-10, -1.71860088E-14,  1.65446753E+04,
                       5.25396822E+00])),
        transport=gas_transport(geom='nonlinear',
                                diam=3.535,
                                well_depth=346.192,
                                polar=2.354),
        note='ATcT3E')

species(name='CH4',
        atoms='C:1 H:4',
        thermo=(NASA([200.00, 1000.00],
                     [ 5.00701913E+00, -1.26484158E-02,  4.66821073E-05,
                      -4.59210565E-08,  1.57633618E-11, -1.02223522E+04,
                      -4.04227377E+00]),
                NASA([1000.00, 6000.00],
                     [ 1.68377091E+00,  1.00130251E-02, -3.31267639E-06,
                       5.30233546E-10, -3.13372430E-14, -1.00187792E+04,
                       9.71477402E+00])),
        transport=gas_transport(geom='nonlinear',
                                diam=3.575,
                                well_depth=435.921,
                                polar=2.454,
                                rot_relax=13.0),
        note='ATcT3E')

species(name='C2',
        atoms='C:2',
        thermo=(NASA([200.00, 1000.00],
                     [ 1.33654919E+00,  3.59692890E-02, -1.11849524E-04,
                       1.31762493E-07, -5.29904082E-11,  9.84220606E+04,
                       9.54586591E+00]),
                NASA([1000.00, 6000.00],
                     [ 3.55870014E+00,  7.86412096E-04, -1.25558422E-07,
                       8.97792994E-12, -1.32453488E-16,  9.88903500E+04,
                       4.18695466E+00])),
        transport=gas_transport(geom='linear',
                                diam=3.097,
                                well_depth=2198.288,
                                polar=5.278,
                                rot_relax=4.0),
        note='ATcT3E')

species(name='C2H',
        atoms='C:2 H:1',
        thermo=(NASA([200.00, 1000.00],
                     [ 2.89867676E+00,  1.32988489E-02, -2.80733327E-05,
                       2.89484755E-08, -1.07502351E-11,  6.70616050E+04,
                       6.18547632E+00]),
                NASA([1000.00, 6000.00],
                     [ 3.66270248E+00,  3.82492252E-03, -1.36632500E-06,
                       2.13455040E-10, -1.23216848E-14,  6.71683790E+04,
                       3.92205792E+00])),
        transport=gas_transport(geom='linear',
                                diam=3.469,
                                well_depth=952.577,
                                dipole=0.771,
                                polar=3.371,
                                rot_relax=2.5),
        note='EthynylRadT5/10')

species(name='C2H2',
        atoms='C:2 H:2',
        thermo=(NASA([200.00, 1000.00],
                     [ 6.26263508E-01,  2.47263532E-02, -3.89555894E-05,
                       3.16484975E-08, -9.87351295E-12,  2.64555796E+04,
                       1.46968104E+01]),
                NASA([1000.00, 6000.00],
                     [ 4.66165760E+00,  4.88861739E-03, -1.61257351E-06,
                       2.48284097E-10, -1.39736824E-14,  2.57695270E+04,
                      -4.01062351E+00])),
        transport=gas_transport(geom='linear',
                                diam=3.655,
                                well_depth=902.442,
                                polar=3.397,
                                rot_relax=2.5),
        note='ATcT3E')

species(name='CH2C',
        atoms='H:2 C:2',
        thermo=(NASA([200.00, 1000.00],
                     [ 3.46255930E+00,  7.13132584E-03, -3.42302378E-06,
                       2.24301590E-10,  3.76122596E-13,  4.82040787E+04,
                       5.04625210E+00]),
                NASA([1000.00, 3000.00],
                     [ 3.52929569E+00,  6.70499004E-03, -3.10213333E-06,
                       7.02248316E-10, -6.31151710E-14,  4.82119076E+04,
                       4.80163790E+00])),
        transport=gas_transport(geom='nonlinear',
                                diam=3.767,
                                well_depth=824.929,
                                dipole=2.37,
                                polar=3.619,
                                rot_relax=2.5))

species(name='C2H3',
        atoms='C:2 H:3',
        thermo=(NASA([200.00, 1000.00],
                     [ 3.12502174E+00,  2.35136801E-03,  2.36803425E-05,
                      -3.35092391E-08,  1.39444106E-11,  3.45243318E+04,
                       8.81537658E+00]),
                NASA([1000.00, 6000.00],
                     [ 4.37211201E+00,  7.46869010E-03, -2.64715570E-06,
                       4.22753257E-10, -2.44958401E-14,  3.38051964E+04,
                       4.28771726E-01])),
        transport=gas_transport(geom='nonlinear',
                                diam=3.801,
                                well_depth=862.368,
                                dipole=0.689,
                                polar=3.884,
                                rot_relax=1.0),
        note='ATcT3E')

species(name='CO',
        atoms='C:1 O:1',
        thermo=(NASA([200.00, 1000.00],
                     [ 3.59508377E+00, -7.21196937E-04,  1.28238234E-06,
                       6.52429293E-10, -8.21714806E-13, -1.43448968E+04,
                       3.44355598E+00]),
                NASA([1000.00, 6000.00],
                     [ 3.03397274E+00,  1.37328118E-03, -4.96445087E-07,
                       8.10281447E-11, -4.85331749E-15, -1.42586044E+04,
                       6.10076092E+00])),
        transport=gas_transport(geom='linear',
                                diam=3.355,
                                well_depth=565.618,
                                dipole=0.107,
                                polar=1.957,
                                rot_relax=1.8),
        note='ATcT3E')

species(name='C2H4',
        atoms='C:2 H:4',
        thermo=(NASA([200.00, 1000.00],
                     [ 3.65150713E+00, -5.35067462E-03,  5.16486118E-05,
                      -6.36868930E-08,  2.50743457E-11,  5.11450775E+03,
                       5.38560851E+00]),
                NASA([1000.00, 6000.00],
                     [ 4.14446010E+00,  1.02648277E-02, -3.61246996E-06,
                       5.74008727E-10, -3.39295896E-14,  4.19059383E+03,
                      -1.14778318E+00])),
        transport=gas_transport(geom='nonlinear',
                                diam=3.893,
                                well_depth=901.989,
                                polar=4.03,
                                rot_relax=1.5),
        note='ATcT3E')

species(name='HCO',
        atoms='C:1 H:1 O:1',
        thermo=(NASA([200.00, 1000.00],
                     [ 3.97074749E+00, -1.49121608E-03,  9.54041776E-06,
                      -8.82720349E-09,  2.67645129E-12,  3.84203291E+03,
                       4.44660361E+00]),
                NASA([1000.00, 6000.00],
                     [ 3.85781113E+00,  2.64113950E-03, -7.44177294E-07,
                       1.23313230E-10, -8.88958718E-15,  3.61642883E+03,
                       3.92451197E+00])),
        transport=gas_transport(geom='nonlinear',
                                diam=3.394,
                                well_depth=745.695,
                                dipole=1.627,
                                polar=2.561,
                                rot_relax=2.0),
        note='ATcT3E')

species(name='C2H5',
        atoms='C:2 H:5',
        thermo=(NASA([200.00, 1000.00],
                     [ 4.11105107E+00, -2.63843875E-03,  4.60475495E-05,
                      -5.64273193E-08,  2.19027735E-11,  1.30013714E+04,
                       4.99417675E+00]),
                NASA([1000.00, 6000.00],
                     [ 4.41716986E+00,  1.22704143E-02, -4.34557774E-06,
                       6.94962736E-10, -4.13530760E-14,  1.21467900E+04,
                      -3.87435311E-01])),
        transport=gas_transport(geom='nonlinear',
                                diam=4.048,
                                well_depth=850.569,
                                dipole=0.306,
                                polar=4.135,
                                rot_relax=1.5),
        note='ATcT3E')

species(name='CHOH',
        atoms='H:2 C:1 O:1',
        thermo=(NASA([200.00, 1000.00],
                     [ 4.77454317E+00, -1.08967973E-02,  4.47533530E-05,
                      -4.79660221E-08,  1.73118580E-11,  1.18434732E+04,
                       1.50146969E+00]),
                NASA([1000.00, 3000.00],
                     [ 1.99559469E+00,  1.01667581E-02, -5.42903209E-06,
                       1.38068119E-09, -1.37067175E-13,  1.19712148E+04,
                       1.26387330E+01])),