!
!     A 39-species skeletal mechanism for DME-air
!
!     Developed by:
!
!       Zhaoyu Luo & Tianfeng Lu
!       Department of Mechanical Engineering
!       University of Connecticut
!       191 Audotorium Road U-3139
!       Storrs, CT 06269
!
!       Email: tlu@engr.uconn.edu
!
!     Citation: Bhagatwala A., Luo Z., Lu T.F., Shen H., Sutton J.A., Chen J.H., 
!               "Numerical and experimental investigation of turbulent DME jet flames," 
!               Proc. Combust. Inst., DOI: 10.1016/j.proci.2014.05.147, 2014.
!

ELEMENTS
C H O N 
END

SPECIES
H	H2	CH2	CH2(S)
CH3	O	CH4	OH
H2O	C2H2	C2H3	CO
C2H4	HCO	C2H5	CH2O
C2H6	CH2OH	CH3O	O2
HO2	H2O2	CO2	CH3HCO
CH3OCH2	HCOOH	CH3OCH3	HOCH2O
CH3OCO	CH3OCHO	CH3OCH2O	CH3OCH2OH
OCH2OCHO	HOCH2OCO	CH3OCH2O2	CH2OCH2O2H
HO2CH2OCHO	O2CH2OCH2O2H	
N2	
END

REACTIONS
!1
H+O2 = O+OH                                 3.547E+15 -0.406 1.6599E+04
!2
O+H2 = H+OH                                 0.508E+05  2.67  0.629E+04
!3
H2+OH = H2O+H                               0.216E+09  1.51  0.343E+04
!4
O+H2O = OH+OH                               2.970E+06  2.02  1.340E+04
!5
H2+M = H+H+M                                4.577E+19 -1.40  1.0438E+05
   H2/2.5/ H2O/12/
   CO/1.9/ CO2/3.8/
!6
O+O+M = O2+M                                6.165E+15 -0.50  0.000E+00
   H2/2.5/ H2O/12/
   CO/1.9/ CO2/3.8/
!7
O+H+M = OH+M                                4.714E+18 -1.00  0.000E+00
   H2/2.5/ H2O/12/
   CO/1.9/ CO2/3.8/
!8
H+OH+M = H2O+M                              3.800E+22 -2.00  0.000E+00
   H2/2.5/ H2O/12/
   CO/1.9/ CO2/3.8/
!9
H+O2(+M) = HO2(+M)                          1.475E+12  0.60  0.000E+00
   LOW/6.366E+20 -1.72  5.248E+02/
   TROE/0.8  1E-30  1E+30/
   H2/2.0/ H2O/11./ O2/0.78/ CO/1.9/ CO2/3.8/
!10
HO2+H = H2+O2                               1.66E+13   0.00  0.823E+03
!11
HO2+H = OH+OH                               7.079E+13  0.00  2.950E+02
!12
HO2+O = O2+OH                               3.250E+13  0.00  0.000E+00
!13
HO2+OH = H2O+O2                             2.890E+13  0.00 -4.970E+02
!14
HO2+HO2 = H2O2+O2                           4.200e+14  0.00  1.1982E+04
   DUPLICATE
!15
HO2+HO2 = H2O2+O2                           1.300e+11  0.00 -1.6293E+03
   DUPLICATE
!16
H2O2(+M) = OH+OH(+M)                        2.951E+14  0.00  4.843E+04
   LOW/1.202E+17  0.00  4.550E+04/
   TROE/0.5 1E-30 1E+30/
   H2/2.5/ H2O/12/
   CO/1.9/ CO2/3.8/
!17
H2O2+H = H2O+OH                             2.410E+13  0.00  3.970E+03
!18
H2O2+H = HO2+H2                             4.820E+13  0.00  7.950E+03
!19
H2O2+O = OH+HO2                             9.550E+06  2.00  3.970E+03
!20
H2O2+OH = HO2+H2O                           1.000E+12  0.00  0.000E+00
   DUPLICATE
!21
H2O2+OH = HO2+H2O                           5.800E+14  0.00  9.557E+03
   DUPLICATE
!22
CO+O(+M) = CO2(+M)                          1.800E+10  0.00  2.384E+03
   LOW/1.550E+24 -2.79  4.191E+03/
   H2/2.5/ H2O/12/ CO/1.9/ CO2/3.8/
!23
CO+O2 = CO2+O                               2.530E+12  0.00  4.770E+04
!24
CO+HO2 = CO2+OH                             3.010E+13  0.00  2.300E+04
!25
CO+OH = CO2+H                               2.229E+05  1.89 -1.1587E+03
!26
HCO+M = H+CO+M                              4.7485E+11 0.659 1.4874E+04
   H2/2.5/ H2O/6/ CO/1.9/ CO2/3.8/
!27
HCO+O2 = CO+HO2                             7.580E+12  0.00  4.100E+02 
!28
HCO+H = CO+H2                               7.230E+13  0.00  0.000E+00
!29
HCO+O = CO+OH                               3.020E+13  0.00  0.000E+00  
!30
HCO+OH = CO+H2O                             3.020E+13  0.00  0.000E+00
!31
HCO+O = CO2+H                               3.000E+13  0.00  0.000E+00
!32
HCO+HO2 = CO2+OH+H                          3.000E+13  0.00  0.000E+00
!33
HCO+HCO = H2+CO+CO                          3.000E+12  0.00  0.000E+00
!34
HCO+CH3 = CO+CH4                            2.650E+13  0.00  0.000E+00
!35
HCO+HCO = CH2O+CO                           3.000E+13  0.00  0.000E+00
!36
CH2O + M = HCO + H + M                      3.300E+39 -6.30  9.990E+04
   H2/2.5/ H2O/12.0/ CO/1.9/ CO2/3.8/
!37
CH2O + M = CO + H2 + M                      3.100E+45 -8.00  9.751E+04
   H2/2.5/ H2O/12.0/ CO/1.9/ CO2/3.8/
!38
CH2O + H = HCO + H2                         5.740E+07  1.90  2.7486E+03
!39
CH2O + O = HCO + OH                         1.810E+13  0.00  3.080E+03
!40
CH2O + OH = HCO + H2O                       3.430E+09  1.18 -4.470E+02
!41
CH2O + O2 = HCO + HO2                       1.230E+06  3.00  5.200E+04
!42
CH2O + HO2 = HCO + H2O2                     4.110E+04  2.50  1.021E+04
!43
CH2O+CH3 = HCO+CH4                          3.636E-06  5.42  9.980E+02
!44
CH3+O = CH2O+H                              8.430E+13  0.00  0.000E+00
!45
CH3+O2 = CH3O+O                             1.990E+18 -1.57  2.923E+04
!46
CH3+O2 = CH2O+OH                            3.740E+11  0.00  1.4640E+04
!47
CH3+HO2 = CH3O+OH                           2.410E+10  0.76 -2.325E+03
!48
CH3+CH3(+M) = C2H6(+M)                      2.277E+15 -0.69  1.7486E+02
   LOW/8.054E+31 -3.75  9.816E+02/
   TROE/0.0 570.0 0.0 1.E+30/
   H2O/5/ CO/2/ CO2/3/
!49
CH3+H(+M) = CH4(+M)                         1.270E+16 -0.630 3.830E+02 
   LOW  /  2.477E+33   -4.760   2440.00/
   TROE/  0.7830   74.00  2941.00  6964.00 /
   H2/2.0/ H2O/6.0/ CH4/2.0/ CO/1.5/ CO2/2.0/ C2H6/3.0/
!50
CH4+H = CH3+H2                              5.470E+07  1.97  1.121E+04
!51
CH4+O = CH3+OH                              3.150E+12  0.50  1.029E+04
!52
CH4+OH = CH3+H2O                            5.720E+06  1.96  2.639E+03
!53
CH3+HO2 = CH4+O2                            3.160E+12  0.00  0.000E+00
!54
CH4+HO2 = CH3+H2O2                          1.810E+11  0.00  1.858E+04
!55
CH2OH+M = CH2O+H+M                          1.000E+14  0.00  2.510E+04
!56
CH2OH+H = CH2O+H2                           6.000E+12  0.00  0.000E+00
!57
CH2OH+H = CH3+OH                            9.635E+13  0.00  0.000E+00
!58
CH2OH+O = CH2O+OH                           4.200E+13  0.00  0.000E+00
!59
CH2OH+OH = CH2O+H2O                         2.400E+13  0.00  0.000E+00
!60
CH2OH+O2 = CH2O+HO2                         2.410E+14  0.00  5.017E+03
   DUPLICATE
!61
CH2OH+O2 = CH2O+HO2                         1.510E+15 -1.00  0.000E+00
   DUPLICATE
!62
CH2OH+HO2 = CH2O+H2O2                       1.200E+13  0.00  0.000E+00
!63
CH2OH+HCO = CH2O+CH2O                       1.500E+13  0.00  0.000E+00
!64
CH3O+M = CH2O+H+M                           8.300E+17 -1.20  1.550E+04 !MC Lin
!65
CH3O+H = CH3+OH                             3.200E+13  0.00  0.000E+00
!66
CH3O+O = CH2O+OH                            6.000E+12  0.00  0.000E+00
!67
CH3O+OH = CH2O+H2O                          1.800E+13  0.00  0.000E+00
!68
CH3O+O2 = CH2O+HO2                          9.033E+13  0.00  1.198E+04
   DUPLICATE
!69
CH3O+O2 = CH2O+HO2                          2.200E+10  0.00  1.748E+03
   DUPLICATE
!70
CH3O+HO2 = CH2O+H2O2                        3.000E+11  0.00  0.000E+00
!71
CH3O+CO = CH3+CO2                           1.600E+13  0.00  1.180E+04
!72
CH3+CH3 = H+C2H5                            4.990E+12  0.10  1.060E+04
!73
CH4+CH2 = CH3+CH3                           2.460E+06  2.00  8.270E+03
!74
CH4+CH2(S) = CH3+CH3                        1.600E+13  0.00 -5.700E+02
!75
CH3+OH = CH2+H2O                            5.600E+07  1.60  5.420E+03
!76
CH3+OH = CH2(S)+H2O                         2.501E+13  0.00  0.000E+00
!77
CH3+CH2 = C2H4+H                            4.000E+13  0.00  0.000E+00
!78
CH3+CH2(S) = C2H4+H                         1.200E+13  0.00 -5.700E+02
!79
CH3O+H = CH2(S)+H2O                         1.600E+13  0.00  0.000E+00
!80
C2H6+H = C2H5+H2                            1.150E+08  1.90  7.530E+03
!81
C2H6+O = C2H5+OH                            8.980E+07  1.92  5.690E+03
!82
C2H6+OH = C2H5+H2O                          3.540E+06  2.12  8.700E+02
!83
C2H6+O2=C2H5+HO2                            4.000E+13  0.00  5.090E+04
!84
C2H6+HO2=C2H5+H2O2                          2.940E+11  0.00  1.494E+04
!85
C2H6+CH3 = C2H5+CH4                         6.140E+06  1.74  1.045E+04
!86
C2H5+H(+M) = C2H6(+M)                       5.210E+17 -0.99  1.580E+03
  LOW  /  1.990E+41   -7.080   6685.00/
  TROE/  0.8422  125.00  2219.00  6882.00 /
  H2/2.0/ H2O/6.0/ CH4/2.0/ CO/1.5/ CO2/2.0/ C2H6/3.0/
!87
C2H5+H = C2H4+H2                            2.000E+12  0.00  0.000E+00
!88
C2H5+O = CH3+CH2O                           1.320E+14  0.00  0.000E+00
!89
C2H5+O2 = C2H4+HO2                          2.000E+10  0.00  0.000E+00
!90
C2H5+C2H5 = C2H4+C2H6                       1.400E+12  0.00  0.000E+00 
!91
C2H5+HCO = C2H6+CO        	            1.200E+14  0.00  0.000E+00
!92
C2H5+O = CH3HCO+H                           8.020E+13  0.00  0.000E+00
!93
C2H4(+M) = H2+C2H2(+M)                      8.000E+12  0.44  8.877E+04
   LOW  /  7.000E+50   -9.310  99860.00/
   TROE/  0.7345  180.00  1035.00  5417.00 /
   H2/2.0/ H2O/6.0/ CH4/2.0/ CO/1.5/ CO2/2.0/ C2H6/3.0/
!94
C2H4+H(+M) = C2H5(+M)                       1.080E+12  0.454 1.820E+03
   LOW  /  1.200E+42   -7.620   6970.00/
   TROE/  0.9753  210.00   984.00  4374.00 /
   H2/2.0/ H2O/6.0/ CH4/2.0/ CO/1.5/ CO2/2.0/ C2H6/3.0/
!95
C2H3+H(+M) = C2H4(+M)                       6.080E+12  0.27  2.800E+02
   LOW  /  1.400E+30   -3.860   3320.00/
   TROE/  0.7820  207.50  2663.00  6095.00 /
   H2/2.0/ H2O/6.0/ CH4/2.0/ CO/1.5/ CO2/2.0/ C2H6/3.0/
!96
C2H4+H = C2H3+H2                            1.325E+06  2.53  1.224E+04
!97
C2H4+OH = C2H3+H2O                          1.800E+06  2.00  2.500E+03
!98
C2H4+CH3 = C2H3+CH4                         2.270E+05  2.00  9.200E+03
!99
C2H4+O = CH3+HCO                            1.920E+07  1.83  2.200E+02
!100
C2H3+OH = C2H2+H2O                          5.000E+12  0.00  0.000E+00
!101
C2H4+O = OH+C2H3                            1.51E+07   1.91  3.740E+03
!102
C2H4+O2=C2H3+HO2                            4.215E+13  0.00  5.760E+04
!103
C2H3+H = C2H2+H2                            9.640E+13  0.00  0.000E+00
!104
C2H3+H2O2 = C2H4+HO2                        1.210E+10  0.00 -5.960E+02
!105
C2H3+CH3 = C2H2+CH4                         3.900E+11  0.00  0.000E+00
!106
C2H3+C2H3 = C2H4+C2H2                       9.600E+11  0.00  0.000E+00
!107
C2H3+O2 = HCO+CH2O                          4.580E+16 -1.39  1.015E+03
!108
C2H3+O2 = HO2+C2H2                          1.337E+06  1.61 -3.840E+02
!109
C2H2+H(+M) = C2H3(+M)                       5.600E+12  0.00  2.400E+03
   LOW  /  3.800E+40   -7.270   7220.00/
   TROE/  0.7507   98.50  1302.00  4167.00 /
   H2/2.0/ H2O/6.0/ CH4/2.0/ CO/1.5/ CO2/2.0/ C2H6/3.0/
!110
C2H2+O = CH2+CO                             0.408E+07  2.00  1.900E+03
!111
C2H2+OH = CH3+CO                            4.830E-04  4.00 -2.000E+03
!112
CH2+H(+M) = CH3(+M)                         2.500E+16 -0.80  0.000E+00
   LOW  /  3.200E+27   -3.140   1230.00/
   TROE/  0.6800   78.00  1995.00  5590.00 /
   H2/2.0/ H2O/6.0/ CH4/2.0/ CO/1.5/ CO2/2.0/ C2H6/3.0/
!113
CH2+O = HCO+H                               8.000E+13  0.00  0.000E+00
!114
CH2+OH = CH2O+H                             2.000E+13  0.00  0.000E+00
!115
CH2+H2 = H+CH3                              5.000E+05  2.00  7.230E+03
!116
CH2+O2 = HCO+OH                             1.320E+13  0.00  1.500E+03
!117
CH2+HO2 = CH2O+OH                           2.000E+13  0.00  0.000E+00
!118
CH2+CH2 = C2H2+H2                           3.200E+13  0.00  0.000E+00
!119
CH2(S)+M = CH2+M                            9.000E+12  0.00  6.000E+02
   H2O/0.0/ CO/0.0/ CO2/0.0/
!120
CH2(S)+H2O = CH2+H2O                        3.000E+13  0.00  0.000E+00
!121
CH2(S)+CO = CH2+CO                          9.000E+12  0.00  0.000E+00
!122
CH2(S)+CO2 = CH2+CO2                        7.000E+12  0.00  0.000E+00
!123
CH2(S)+O = CO+H2                            1.500E+13  0.00  0.000E+00
!124
CH2(S)+O = HCO+H                            1.500E+13  0.00  0.000E+00
!125
CH2(S)+OH = CH2O+H                          3.000E+13  0.00  0.000E+00
!126
CH2(S)+H2 = CH3+H                           7.000E+13  0.00  0.000E+00
!127
CH2(S)+O2 = H+OH+CO                         2.800E+13  0.00  0.000E+00
!128
CH2(S)+O2 = CO+H2O                          1.200E+13  0.00  0.000E+00
!129
CH2(S)+CO2 = CH2O+CO                        1.400E+13  0.00  0.000E+00
!130
CH3HCO = CH3+HCO                            7.000E+15  0.00  8.1674E+04
!131
CH3OCH3 = CH3+CH3O          1.69897E+42 -7.95359E+00  9.18066E+04 ! P =1.0 atm
!132
CH3OCH3+OH = CH3OCH2+H2O                    6.710E+06  2.00 -6.2988E+02
!133
CH3OCH3+H = CH3OCH2+H2                      2.970E+07  2.00  4.03361E+03
!134
CH3OCH3+CH3 = CH3OCH2+CH4                   2.680E+01  3.7779 9.6313E+03
!135
CH3OCH3+O = CH3OCH2+OH                      1.855E-03  5.29 -1.090E+02
!136
CH3OCH3+HO2 = CH3OCH2+H2O2                  2.000E+13  0.00  1.650E+04
!137
CH3OCH3+O2 = CH3OCH2+HO2                    4.100E+13  0.00  4.491E+04
!138
CH3OCH2 = CH2O+CH3                          1.200E+13  0.00  2.575E+04
!139
CH3OCH2+CH3O = CH3OCH3+CH2O                 2.410E+13  0.00  0.000E+00
!140
CH3OCH2+CH2O = CH3OCH3+HCO                  5.490E+03  2.80  5.862E+03
!141
CH3OCH2+HO2 = CH3OCH2O+OH                   9.000E+12  0.00  0.000E+00
!142
CH3OCH2O = CH3OCHO+H                        1.745E+16 -0.66  1.172E+04
!143
CH3OCHO+O2 = CH3OCO+HO2                     1.000E+13  0.00  4.970E+04
!144
CH3OCHO+OH = CH3OCO+H2O                     2.340E+07  1.61 -3.500E+01
!145
CH3OCHO+HO2 = CH3OCO+H2O2                   1.220E+12  0.00  1.700E+04
!146
CH3OCHO+O = CH3OCO+OH                       2.350E+05  2.50  2.230E+03
!147
CH3OCHO+H = CH3OCO+H2                       4.550E+06  2.00  5.000E+03
!148
CH3OCHO+CH3 = CH3OCO+CH4                    7.550E-01  3.46  5.481E+03
!149
CH3OCO = CH3O+CO                            7.451E+12 -1.76  1.715E+04
!150
CH3OCO = CH3+CO2                            1.514E+12 -1.78  1.382E+04
!151
CH3OCH2+O2 = CH3OCH2O2                      2.000E+12  0.00  0.000E+00
!152
CH3OCH2O2+CH3OCH2O2 = O2+CH3OCH2O+CH3OCH2O  1.597E+23 -4.50  0.000E+00
!153
CH3OCH2O2+CH3OCH2O2 = O2+CH3OCHO+CH3OCH2OH  6.844E+22 -4.50  0.000E+00
!154
CH3OCH2O = CH3O+CH2O                        9.722E+15 -1.10  2.064E+04
!155
CH3OCH2O+O2 = CH3OCHO+HO2                   5.000E+10  0.00  5.000E+02
!156
CH3OCH2O2 = CH2OCH2O2H                      6.000E+10  0.00  2.150E+04
!157
CH2OCH2O2H = OH+CH2O+CH2O                   1.500E+13  0.00  2.050E+04
!158
CH2OCH2O2H+O2 = O2CH2OCH2O2H                7.000E+11  0.00  0.000E+00
!159
O2CH2OCH2O2H = HO2CH2OCHO+OH                4.000E+10  0.00  1.850E+04
!160
HO2CH2OCHO = OCH2OCHO+OH                    3.000E+16  0.00  4.000E+04
!161
OCH2OCHO = HOCH2OCO                         1.000E+11  0.00  1.400E+04
!162
HOCH2OCO = HOCH2O+CO                        2.177E+16 -2.69  1.720E+04
!163
HOCH2OCO = CH2OH+CO2                        5.311E+15 -2.61  2.081E+04
!164
HOCH2O = HCOOH+H                            1.000E+14  0.00  1.490E+04
!165
CH2O+OH = HOCH2O                            4.500E+15 -1.11  0.000E+00
!166
HCOOH+M = CO+H2O+M                          2.300E+13  0.00  5.000E+04
!167
HCOOH+M = CO2+H2+M                          1.500E+16  0.00  5.700E+04
!168
HCOOH = HCO+OH                              4.593E+18 -0.46  1.083E+05
!169
HCOOH+OH = H2O+CO2+H                        2.620E+06  2.06  9.160E+02
!170
HCOOH+OH = H2O+CO+OH                        1.850E+07  1.51 -9.620E+02
!171
HCOOH+H = H2+CO2+H                          4.240E+06  2.10  4.868E+03
!172
HCOOH+H = H2+CO+OH                          6.030E+13 -0.35  2.988E+03
!173
HCOOH+CH3 = CH4+CO+OH                       3.900E-07  5.80  2.200E+03
!174
HCOOH+HO2 = H2O2+CO+OH                      1.000E+12  0.00  1.192E+04
!175
HCOOH+O = CO+OH+OH                          1.770E+18 -1.90  2.975E+03

END