"""
A comprehensive chemical kinetic combustion model for the four butanol isomers
S.M. Sarathy, S. Vranckx, K. Yasunaga, M. Mehl, P. Owald, W.K. Metcalfe,
C. K. Westbrook, W.J. Pitz, K. Kohse-Hoinghaus, R.X. Fernandes, H.J Curran
  Accepted Combustion and Flame, Dec 2011

 complete low and high T version of the mechanism

  SMS 01/21/11  ver 7 fix beta scission in reverse (recombination) direction, fix Ea of c4h7oh2-2+ho2<=>c2h5coch3+ho2
  SMS 12/26/11 ver 6 error in class 22, delete REV (does not change any predictions)
  SMS 12/24/11 ver5 uses c0-c4_v54.8 from NUI Galway (does not change any predictions)


A comprehensive chemical kinetic combustion model for the four butanol isomers
S.M. Sarathy, S. Vranckx, K. Yasunaga, M. Mehl, P. Owald, W.K. Metcalfe,
C. K. Westbrook, W.J. Pitz, K. Kohse-Hoinghaus, R.X. Fernandes, H.J Curran
  Accepted Combustion and Flame, Dec 2011


  ver 7 delete first instance of ic3h5oh, ic3h7cho, c2h5coch3
ver 3 use Charlie's c4h8oh-1o2 thermo
version:nc5_54.8.inp
authors:w. k. metcalfe, s. burke, h. j. curran
21/09/2011
added new ketene thermochemistry

added detailed thermo for c2h2oh

wkm 06/07/2011
new species added:c2h3oh,o2ch2cho,ho2ch2co
new thermo for ch3o2, very important for low T, high P CH4 ignition
07/03/2011
corrected editing problems causing CHEMREV to crash.
Updated thermo from Burcat database when species was available
retained previous values for ch3o2 and c2h5
c3h5-a, c3h5-a, c3h5-p from laskin's butadiene paper
22/03/2011
previous thermo for c3h5o, c2h3cho, c2h3co. Burcat's values caused overprediction of reactivity
for propene FR. This is a problem with the kinetics which will be examined later

"""

units(length='cm', time='s', quantity='mol', act_energy='cal/mol')

ideal_gas(name='gas',
          elements="C H N O Ar He",
          species="""h                 h2                o
                     o2                oh                oh*
                     h2o               n2                ho2
                     h2o2              ar                co
                     co2               ch2o              hco
                     ho2cho            hcoh              o2cho
                     hocho             ocho              hoch2o2h
                     hoch2o2           och2o2h           hoch2o
                     ch3oh             ch2oh             ch3o
                     ch3o2h            ch3o2             ch4
                     ch3               ch2               ch2(s)
                     c                 ch                ch*
                     c2h6              c2h5              c2h4
                     c2h3              c2h2              c2h
                     ch3cho            c2h3oh            c2h2oh
                     ch3co             ch2cho            o2ch2cho
                     ho2ch2co          ch2co             hcco
                     hccoh             ch3co3h           ch3co3
                     ch3co2            c2h5oh            c2h5o
                     pc2h4oh           sc2h4oh           o2c2h4oh
                     c2h5o2h           c2h5o2            c2h4o2h
                     c2h4o1-2          c2h3o1-2          ch3coch3
                     ch3coch2          ch3coch2o2        c2h3cho
                     c2h3co            c2h5cho           c2h5co
                     ch3och3           ch3och2           ch3och2o2
                     ch2och2o2h        ch3och2o2h        ch3och2o
                     o2ch2och2o2h      ho2ch2ocho        och2ocho
                     hoch2oco          ch3ocho           ch3oco
                     ch2ocho           he                c3h8
                     ic3h7             nc3h7             c3h6
                     c3h5-a            c3h5-s            c3h5-t
                     c3h4-p            c3h4-a            c3h3
                     c3h5o             c3h6ooh1-2        c3h6ooh1-3
                     c3h6ooh2-1        c3h6ooh1-2o2      c3h6ooh1-3o2
                     c3h6ooh2-1o2      c3h6ooh2-2        nc3h7o2h
                     ic3h7o2h          nc3h7o2           ic3h7o2
                     nc3h7o            ic3h7o            c3h6o1-2
                     c3h6o1-3          c3ket12           c3ket13
                     c3ket21           c3h51-2,3ooh      c3h52-1,3ooh
                     c3h6oh            hoc3h6o2          ch3chco
                     ac3h5ooh          c2h3ooh           cc3h4
                     h2cc              c4h10             c4h8-1
                     c4h8-2            pc4h9             sc4h9
                     c4h71-1           c4h71-2           c4h71-3
                     c4h71-4           c4h72-2           c4h6
                     pc4h9o2h          sc4h9o2h          pc4h9o2
                     sc4h9o2           pc4h9o            sc4h9o
                     c4h7o             c4h8o1-2          c4h8o1-3
                     c4h8o1-4          c4h8o2-3          pc4h8oh
                     sc4h8oh           c4h8oh-1o2        c4h8oh-2o2
                     c4h8ooh1-1        c4h8ooh1-2        c4h8ooh1-3
                     c4h8ooh1-4        c4h8ooh2-1        c4h8ooh2-2
                     c4h8ooh2-3        c4h8ooh2-4        c4h8ooh1-2o2
                     c4h8ooh1-3o2      c4h8ooh1-4o2      c4h8ooh2-1o2
                     c4h8ooh2-3o2      c4h8ooh2-4o2      nc4ket12
                     nc4ket13          nc4ket14          nc4ket21
                     nc4ket23          nc4ket24          c2h5coch3
                     c2h5coch2         ch2ch2coch3       ch3chcoch3
                     c2h3coch3         ch3choococh3      ch2choohcoch3
                     nc3h7cho          nc3h7co           c3h6cho-1
                     c3h6cho-2         c3h6cho-3         c2h5chco
                     sc3h5cho          sc3h5co           ch2ch2cho
                     ic4h10            ic4h9             tc4h9
                     ic4h8             ic4h7             tc4h9o2
                     ic4h9o2           tc4h8o2h-i        ic4h8o2h-i
                     ic4h8o2h-t        ic4h8o            cc4h8o
                     ic4h9o            tc4h9o            ic4h9o2h
                     tc4h9o2h          ic4h7o            ic4h8oh
                     io2c4h8oh         ic3h7cho          tc3h6cho
                     ic3h7co           ic3h6cho          tc4h8ooh-io2
                     ic4h8ooh-io2      ic4h8ooh-to2      ic4ketii
                     ic4ketit          ic4h7oh           ic4h6oh
                     ic3h5cho          ic3h5co           tc3h6ocho
                     ic3h6co           ic4h7ooh          tc3h6ohcho
                     tc3h6oh           ic3h5oh           tc3h6o2cho
                     tc3h6o2hco        ic3h5o2hcho       ch2cch2oh
                     tc4h8cho          o2c4h8cho         o2hc4h8co
                     c3h5oh            tic4h7q2-i        iic4h7q2-t
                     iic4h7q2-i        ch2o2h            c4h4
                     c4h3-i            c4h3-n            c4h612
                     c4h2              c4h5-i            c4h5-n
                     ch3chchco         ch2chchcho        c4h6o25
                     c2h3choch2        c4h5-2            c4h6-2
                     c4h6o23           ch3chchcho        c4h4o
                     h2c4o             nc4h9oh           c4h8oh-1
                     c4h8oh-2          c4h8oh-3          c4h8oh-4
                     c4h6oh1-32        c4h7oh1-1         c4h6oh1-13
                     c4h5oh-13         c4h7oh2-1         c4h7oh1-4
                     sc4h9oh           sc4h8ohm          sc4h8oh-1
                     sc4h8oh-2         sc4h8oh-3         tc4h9oh
                     tc4h8oh           ic4h9oh           ic4h8oh-1
                     ic4h8oh-2         ic4h8oh-3         ic3h6oh
                     c3h6oh-1          c4h7oh2-2         c4h7oh1-2
                     c4h7oh1-3         ch3chchoh         c3h6oh-2
                     ic3h6choh         ic3h5ch2oh        c4h8oh-3o2
                     c4h8oh-4o2        c4h7oh-1ooh-2     c4h7oh-1ooh-3
                     c4h7oh-1ooh-4     c4h7oh-2ooh-4     c4h7oh-2ooh-3
                     c4h7oh-2ooh-1     c4h7oh-3ooh-1     c4h7oh-3ooh-4
                     c4h7oh-3ooh-2     c4h7oh-4ooh-3     c4h7oh-4ooh-2
                     c4h7oh-4ooh-1     c4h7oh-1ooh-2o2   c4h7oh-1ooh-3o2
                     c4h7oh-1ooh-4o2   c4h7oh-2ooh-1o2   c4h7oh-2ooh-3o2
                     c4h7oh-2ooh-4o2   c4h7oh-3ooh-1o2   c4h7oh-3ooh-2o2
                     c4h7oh-3ooh-4o2   c4h7oh-4ooh-1o2   c4h7oh-4ooh-2o2
                     c4h7oh-4ooh-3o2   c4ohket1-2        c4ohket1-3
                     c4ohket1-4        c4ohket2-1        c4ohket2-3
                     c4ohket2-4        c4ohket3-1        c4ohket3-2
                     c4ohket3-4        c4ohket4-1        c4ohket4-2
                     c4ohket4-3        c4h7oho1-2        c4h7oho1-3
                     c4h7oho1-4        c4h7oho2-3        c4h7oho2-4
                     c4h7oho3-4        c4h8oh-1o2h       c4h8oh-2o2h
                     c4h8oh-3o2h       c4h8oh-4o2h       c4h8oh-1o
                     c4h8oh-2o         c4h8oh-3o         c4h8oh-4o
                     hoch2cho          hoch2co           hoc2h4cho
                     hoc2h4co          ic4h8oh-1o2       ic4h8oh-2o2
                     ic4h8oh-3o2       ic4h7oh-1ooh-2    ic4h7oh-1ooh-3
                     ic4h7oh-2ooh-3    ic4h7oh-2ooh-1    ic4h7oh-3ooh-1
                     ic4h7oh-3ooh-2    ic4h7oh-3ooh-3    ic4h7oh-1ooh-2o2
                     ic4h7oh-1ooh-3o2  ic4h7oh-2ooh-1o2  ic4h7oh-2ooh-3o2
                     ic4h7oh-3ooh-1o2  ic4h7oh-3ooh-2o2  ic4h7oh-3ooh-3o2
                     ic4ohket1-2       ic4ohket1-3       ic4ohket3-1
                     ic4ohket3-2       ic4ohket3-3       ic4h7oho1-2
                     ic4h7oho1-3       ic4h7oho2-3       ic4h7oho3-3
                     ic4h8oh-1o2h      ic4h8oh-2o2h      ic4h8oh-3o2h
                     ic4h8oh-1o        ic4h8oh-2o        ic4h8oh-3o
                     tc4h8oh-o2        tc4h7oh-ooh       tc4h8o-ooh
                     tc4h7oh-ooh-o2    tc4ohket          tc4h7oho
                     tc4h8oh-o2h       tc4h8oh-o         sc4h8oh-1o2
                     sc4h8oh-2o2       sc4h8oh-3o2       sc4h8oh-mo2
                     sc4h7oh-1ooh-2    sc4h7oh-1ooh-3    sc4h7oh-1ooh-m
                     sc4h7oh-2ooh-m    sc4h7oh-2ooh-3    sc4h7oh-2ooh-1
                     sc4h7oh-3ooh-1    sc4h7oh-3ooh-m    sc4h7oh-3ooh-2
                     sc4h7oh-mooh-3    sc4h7oh-mooh-2    sc4h7oh-mooh-1
                     sc4h7oh-1ooh-2o2  sc4h7oh-1ooh-3o2  sc4h7oh-1ooh-mo2
                     sc4h7oh-2ooh-1o2  sc4h7oh-2ooh-3o2  sc4h7oh-2ooh-mo2
                     sc4h7oh-3ooh-1o2  sc4h7oh-3ooh-2o2  sc4h7oh-3ooh-mo2
                     sc4h7oh-mooh-1o2  sc4h7oh-mooh-2o2  sc4h7oh-mooh-3o2
                     sc4ohket2-1       sc4ohket2-3       sc4ohket2-m
                     sc4ohket3-1       sc4ohket3-2       sc4ohket3-m
                     sc4ohketm-1       sc4ohketm-2       sc4ohketm-3
                     sc4h7oho1-2       sc4h7oho1-3       sc4h7oho1-m
                     sc4h7oho2-3       sc4h7oho2-m       sc4h7oho3-m
                     sc4h8oh-1o2h      sc4h8oh-2o2h      sc4h8oh-3o2h
                     sc4h8oh-mo2h      sc4h8oh-1o        sc4h8oh-2o
                     sc4h8oh-3o        sc4h8oh-mo""",
          reactions='all',
          transport='Mix',
          initial_state=state(temperature=300.0, pressure=OneAtm))

#-------------------------------------------------------------------------------
# Species data
#-------------------------------------------------------------------------------

species(name='h',
        atoms='H:1',
        thermo=(NASA([200.00, 1000.00],
                     [ 2.50000000E+00,  0.00000000E+00,  0.00000000E+00,
                       0.00000000E+00,  0.00000000E+00,  2.54736600E+04,
                      -4.46682850E-01]),
                NASA([1000.00, 6000.00],
                     [ 2.50000000E+00,  0.00000000E+00,  0.00000000E+00,
                       0.00000000E+00,  0.00000000E+00,  2.54736600E+04,
                      -4.46682850E-01])),
        transport=gas_transport(geom='atom',
                                diam=2.05,
                                well_depth=145.0),
        note='l6/94')

species(name='h2',
        atoms='H:2',
        thermo=(NASA([200.00, 1000.00],
                     [ 2.34433112E+00,  7.98052075E-03, -1.94781510E-05,
                       2.01572094E-08, -7.37611761E-12, -9.17935173E+02,
                       6.83010238E-01]),
                NASA([1000.00, 6000.00],
                     [ 2.93286575E+00,  8.26608026E-04, -1.46402364E-07,
                       1.54100414E-11, -6.88804800E-16, -8.13065581E+02,
                      -1.02432865E+00])),
        transport=gas_transport(geom='linear',
                                diam=2.92,
                                well_depth=38.0,
                                polar=0.79,
                                rot_relax=280.0),
        note='tpis78')

species(name='o',
        atoms='O:1',
        thermo=(NASA([200.00, 1000.00],
                     [ 3.16826710E+00, -3.27931884E-03,  6.64306396E-06,
                      -6.12806624E-09,  2.11265971E-12,  2.91222592E+04,
                       2.05193346E+00]),
                NASA([1000.00, 6000.00],
                     [ 2.54363697E+00, -2.73162486E-05, -4.19029520E-09,
                       4.95481845E-12, -4.79553694E-16,  2.92260120E+04,
                       4.92229457E+00])),
        transport=gas_transport(geom='atom',
                                diam=2.75,
                                well_depth=80.0),
        note='l1/90')

species(name='o2',
        atoms='O:2',
        thermo=(NASA([200.00, 1000.00],
                     [ 3.78245636E+00, -2.99673416E-03,  9.84730201E-06,
                      -9.68129509E-09,  3.24372837E-12, -1.06394356E+03,
                       3.65767573E+00]),
                NASA([1000.00, 6000.00],
                     [ 3.66096065E+00,  6.56365811E-04, -1.41149627E-07,
                       2.05797935E-11, -1.29913436E-15, -1.21597718E+03,
                       3.41536279E+00])),
        transport=gas_transport(geom='linear',
                                diam=3.458,
                                well_depth=107.4,
                                polar=1.6,
                                rot_relax=3.8),
        note='rus89')

species(name='oh',
        atoms='H:1 O:1',
        thermo=(NASA([200.00, 1000.00],
                     [ 3.99198424E+00, -2.40106655E-03,  4.61664033E-06,
                      -3.87916306E-09,  1.36319502E-12,  3.36889836E+03,
                      -1.03998477E-01]),
                NASA([1000.00, 6000.00],
                     [ 2.83853033E+00,  1.10741289E-03, -2.94000209E-07,
                       4.20698729E-11, -2.42289890E-15,  3.69780808E+03,
                       5.84494652E+00])),
        transport=gas_transport(geom='linear',
                                diam=2.75,
                                well_depth=80.0),
        note='iu3/03')

species(name='oh*',
        atoms='H:1 O:1',
        thermo=(NASA([300.00, 1000.00],
                     [ 3.63726600E+00,  1.85091000E-04, -1.67616460E-06,
                       2.38720200E-09, -8.43144200E-13,  5.00213000E+04,
                       1.35886050E+00]),
                NASA([1000.00, 5000.00],
                     [ 2.88273000E+00,  1.01397430E-03, -2.27687700E-07,
                       2.17468300E-11, -5.12630500E-16,  5.02650000E+04,
                       5.59571200E+00])),
        transport=gas_transport(geom='linear',
                                diam=2.75,
                                well_depth=80.0),
        note='121286')

species(name='h2o',
        atoms='H:2 O:1',
        thermo=(NASA([200.00, 1000.00],
                     [ 4.19863520E+00, -2.03640170E-03,  6.52034160E-06,
                      -5.48792690E-09,  1.77196800E-12, -3.02937260E+04,
                      -8.49009010E-01]),
                NASA([1000.00, 6000.00],
                     [ 2.67703890E+00,  2.97318160E-03, -7.73768890E-07,
                       9.44335140E-11, -4.26899910E-15, -2.98858940E+04,
                       6.88255000E+00])),
        transport=gas_transport(geom='nonlinear',
                                diam=2.605,
                                well_depth=572.4,
                                dipole=1.844,
                                rot_relax=4.0),
        note='l5/89')

species(name='n2',
        atoms='N:2',
        thermo=(NASA([200.00, 1000.00],
                     [ 3.53100528E+00, -1.23660988E-04, -5.02999433E-07,
                       2.43530612E-09, -1.40881235E-12, -1.04697628E+03,
                       2.96747038E+00]),
                NASA([1000.00, 6000.00],
                     [ 2.95257637E+00,  1.39690040E-03, -4.92631603E-07,
                       7.86010195E-11, -4.60755204E-15, -9.23948688E+02,
                       5.87188762E+00])),
        transport=gas_transport(geom='linear',
                                diam=3.621,
                                well_depth=97.53,
                                polar=1.76,
                                rot_relax=4.0),
        note='g8/02')

species(name='ho2',
        atoms='H:1 O:2',
        thermo=(NASA([200.00, 1000.00],
                     [ 4.30179807E+00, -4.74912097E-03,  2.11582905E-05,
                      -2.42763914E-08,  9.29225225E-12,  2.64018485E+02,
                       3.71666220E+00]),
                NASA([1000.00, 5000.00],
                     [ 4.17228741E+00,  1.88117627E-03, -3.46277286E-07,
                       1.94657549E-11,  1.76256905E-16,  3.10206839E+01,
                       2.95767672E+00])),
        transport=gas_transport(geom='nonlinear',
                                diam=3.458,
                                well_depth=107.4,
                                rot_relax=1.0),
        note='t1/09')

species(name='h2o2',
        atoms='H:2 O:2',
        thermo=(NASA([200.00, 1000.00],
                     [ 4.31515149E+00, -8.47390622E-04,  1.76404323E-05,
                      -2.26762944E-08,  9.08950158E-12, -1.77067437E+04,
                       3.27373319E+00]),
                NASA([1000.00, 6000.00],
                     [ 4.57977305E+00,  4.05326003E-03, -1.29844730E-06,
                       1.98211400E-10, -1.13968792E-14, -1.80071775E+04,
                       6.64970694E-01])),
        transport=gas_transport(geom='nonlinear',
                                diam=3.458,
                                well_depth=107.4,
                                rot_relax=3.8),
        note='t8/03')

species(name='ar',
        atoms='Ar:1',
        thermo=(NASA([200.00, 1000.00],
                     [ 2.50000000E+00,  0.00000000E+00,  0.00000000E+00,
                       0.00000000E+00,  0.00000000E+00, -7.45375000E+02,
                       4.37967491E+00]),
                NASA([1000.00, 6000.00],
                     [ 2.50000000E+00,  0.00000000E+00,  0.00000000E+00,
                       0.00000000E+00,  0.00000000E+00, -7.45375000E+02,
                       4.37967491E+00])),
        transport=gas_transport(geom='atom',
                                diam=3.33,
                                well_depth=136.5),
        note='g5/97')

species(name='co',
        atoms='C:1 O:1',
        thermo=(NASA([200.00, 1000.00],
                     [ 3.57953350E+00, -6.10353690E-04,  1.01681430E-06,
                       9.07005860E-10, -9.04424490E-13, -1.43440860E+04,
                       3.50840930E+00]),
                NASA([1000.00, 6000.00],
                     [ 3.04848590E+00,  1.35172810E-03, -4.85794050E-07,
                       7.88536440E-11, -4.69807460E-15, -1.42661170E+04,
                       6.01709770E+00])),
        transport=gas_transport(geom='linear',
                                diam=3.65,
                                well_depth=98.1,
                                polar=1.95,
                                rot_relax=1.8),
        note='rus79')

species(name='co2',
        atoms='C:1 O:2',
        thermo=(NASA([200.00, 1000.00],
                     [ 2.35681300E+00,  8.98412990E-03, -7.12206320E-06,
                       2.45730080E-09, -1.42885480E-13, -4.83719710E+04,
                       9.90090350E+00]),
                NASA([1000.00, 6000.00],
                     [ 4.63651110E+00,  2.74145690E-03, -9.95897590E-07,
                       1.60386660E-10, -9.16198570E-15, -4.90249040E+04,
                      -1.93489550E+00])),
        transport=gas_transport(geom='linear',
                                diam=3.763,
                                well_depth=244.0,
                                polar=2.65,
                                rot_relax=2.1),
        note='l7/88')

species(name='ch2o',
        atoms='C:1 H:2 O:1',
        thermo=(NASA([200.00, 1000.00],
                     [ 4.79372312E+00, -9.90833322E-03,  3.73219990E-05,
                      -3.79285237E-08,  1.31772641E-11, -1.43227879E+04,
                       6.02798058E-01]),
                NASA([1000.00, 6000.00],
                     [ 3.16952665E+00,  6.19320560E-03, -2.25056366E-06,
                       3.65975660E-10, -2.20149458E-14, -1.44922756E+04,
                       6.04207898E+00])),
        transport=gas_transport(geom='nonlinear',
                                diam=3.59,
                                well_depth=498.0,
                                rot_relax=2.0),
        note='g8/88')

species(name='hco',
        atoms='C:1 H:1 O:1',
        thermo=(NASA([200.00, 1000.00],
                     [ 4.23754610E+00, -3.32075257E-03,  1.40030264E-05,
                      -1.34239995E-08,  4.37416208E-12,  3.87241185E+03,
                       3.30834869E+00]),
                NASA([1000.00, 6000.00],
                     [ 3.92001542E+00,  2.52279324E-03, -6.71004164E-07,
                       1.05615948E-10, -7.43798261E-15,  3.65342928E+03,
                       3.58077056E+00])),
        transport=gas_transport(geom='nonlinear',
                                diam=3.59,
                                well_depth=498.0),
        note='t5/03')

species(name='ho2cho',
        atoms='C:1 H:2 O:3',
        thermo=(NASA([300.00, 1378.00],
                     [ 2.42464726E+00,  2.19706380E-02, -1.68705546E-05,
                       6.25612194E-09, -9.11645843E-13, -3.54828006E+04,
                       1.75027796E+01]),
                NASA([1378.00, 5000.00],
                     [ 9.87503878E+00,  4.64663708E-03, -1.67230522E-06,
                       2.68624413E-10, -1.59595232E-14, -3.80502496E+04,
                      -2.24939155E+01])),
        transport=gas_transport(geom='nonlinear',
                                diam=3.97,
                                well_depth=436.0,
                                rot_relax=2.0),
        note='6/26/95therm')

species(name='hcoh',
        atoms='C:1 H:2 O:1',
        thermo=(NASA([300.00, 1398.00],
                     [-2.82157421E+00,  3.57331702E-02, -3.80861580E-05,
                       1.86205951E-08, -3.45957838E-12,  1.12956672E+04,
                       3.48487757E+01]),
                NASA([1398.00, 5000.00],
                     [ 9.18749272E+00,  1.52011152E-03, -6.27603516E-07,
                       1.09727989E-10, -6.89655128E-15,  7.81364593E+03,
                      -2.73434214E+01])),
        transport=gas_transport(geom='nonlinear',
                                diam=3.59,
                                well_depth=498.0,
                                rot_relax=1.0),
        note='mar94')

species(name='o2cho',
        atoms='C:1 H:1 O:3',
        thermo=(NASA([300.00, 1368.00],
                     [ 3.96059309E+00,  1.06002279E-02, -5.25713351E-06,
                       1.01716726E-09, -2.87487602E-14, -1.73599383E+04,
                       1.17807483E+01]),
                NASA([1368.00, 5000.00],
                     [ 7.24075139E+00,  4.63312951E-03, -1.63693995E-06,
                       2.59706693E-10, -1.52964699E-14, -1.87027618E+04,
                      -6.49547212E+00])),
        transport=gas_transport(geom='nonlinear',
                                diam=3.97,
                                well_depth=436.0,
                                rot_relax=2.0),
        note='6/26/95therm')

species(name='hocho',
        atoms='C:1 H:2 O:2',
        thermo=(NASA([200.00, 1000.00],
                     [ 3.89836160E+00, -3.55877950E-03,  3.55205380E-05,
                      -4.38499590E-08,  1.71077690E-11, -4.67706090E+04,
                       7.34953970E+00]),
                NASA([1000.00, 6000.00],
                     [ 4.61383160E+00,  6.44963640E-03, -2.29082510E-06,
                       3.67160470E-10, -2.18736750E-14, -4.75148500E+04,
                       8.47883830E-01])),
        transport=gas_transport(geom='nonlinear',
                                diam=3.97,
                                well_depth=436.0,
                                rot_relax=2.0),
        note='l8/88')

species(name='ocho',
        atoms='C:1 H:1 O:2',
        thermo=(NASA([200.00, 1000.00],
                     [ 4.68825921E+00, -4.14871834E-03,  2.55066010E-05,
                      -2.84473900E-08,  1.04422559E-11, -1.69867041E+04,
                       4.28426480E+00]),
                NASA([1000.00, 6000.00],
                     [ 4.14394211E+00,  5.59738818E-03, -1.99794019E-06,
                       3.16179193E-10, -1.85614483E-14, -1.72459887E+04,
                       5.07778617E+00])),
        transport=gas_transport(geom='nonlinear',
                                diam=3.59,
                                well_depth=498.0,
                                rot_relax=2.0),
        note='atct/a')

species(name='hoch2o2h',
        atoms='C:1 H:4 O:3',
        thermo=(NASA([300.00, 1422.00],
                     [ 1.85716693E+00,  3.23153132E-02, -2.69928902E-05,
                       1.11694484E-08, -1.81284103E-12, -4.00314471E+04,
                       1.90917729E+01]),
                NASA([1422.00, 5000.00],
                     [ 1.16303827E+01,  7.15133688E-03, -2.39035030E-06,
                       3.65772791E-10, -2.10199524E-14, -4.31079242E+04,
                      -3.24276725E+01])),
        transport=gas_transport(geom='nonlinear',
                                diam=3.626,
                                well_depth=481.8,
                                dipole=1.7,
                                rot_relax=1.0),
        note='4/9/98therm')

species(name='hoch2o2',
        atoms='C:1 H:3 O:3',
        thermo=(NASA([300.00, 1412.00],
                     [ 2.85441621E+00,  2.33663535E-02, -1.88115990E-05,
                       7.96709515E-09, -1.36346618E-12, -2.29866196E+04,
                       1.51730565E+01]),
                NASA([1412.00, 5000.00],
                     [ 9.04545938E+00,  7.15223373E-03, -2.37005676E-06,
                       3.60083481E-10, -2.05750228E-14, -2.49414886E+04,
                      -1.74210530E+01])),
        transport=gas_transport(geom='nonlinear',
                                diam=3.626,
                                well_depth=481.8,
                                dipole=1.7,
                                rot_relax=1.0),
        note='4/9/98therm')

species(name='och2o2h',
        atoms='C:1 H:3 O:3',
        thermo=(NASA([300.00, 1420.00],
                     [ 1.93823075E+00,  3.01465730E-02, -2.61053152E-05,
                       1.09463562E-08, -1.78312692E-12, -1.38166625E+04,
                       1.85042002E+01]),
                NASA([1420.00, 5000.00],
                     [ 1.15398246E+01,  5.34291432E-03, -1.81878917E-06,
                       2.81968625E-10, -1.63584348E-14, -1.68237489E+04,
                      -3.20700633E+01])),
        transport=gas_transport(geom='nonlinear',
                                diam=3.626,
                                well_depth=481.8,
                                dipole=1.7,
                                rot_relax=1.0),
        note='4/9/98therm')

species(name='hoch2o',
        atoms='C:1 H:3 O:2',
        thermo=(NASA([300.00, 1452.00],
                     [ 4.11183145E+00,  7.53850697E-03,  3.77337370E-06,
                      -5.38746005E-09,  1.45615887E-12, -2.28023001E+04,
                       7.46807254E+00]),
                NASA([1452.00, 5000.00],
                     [ 6.39521515E+00,  7.43673043E-03, -2.50422354E-06,
                       3.84879712E-10, -2.21778689E-14, -2.41108840E+04,
                      -6.63865583E+00])),
        transport=gas_transport(geom='nonlinear',
                                diam=4.41,
                                well_depth=470.6,
                                rot_relax=1.5),
        note='2/16/99therm')

species(name='ch3oh',
        atoms='C:1 H:4 O:1',
        thermo=(NASA([200.00, 1000.00],
                     [ 5.65851051E+00, -1.62983419E-02,  6.91938156E-05,
                      -7.58372926E-08,  2.80427550E-11, -2.56119736E+04,
                      -8.97330508E-01]),
                NASA([1000.00, 6000.00],
                     [ 3.52726795E+00,  1.03178783E-02, -3.62892944E-06,
                       5.77448016E-10, -3.42182632E-14, -2.60028834E+04,
                       5.16758693E+00])),
        transport=gas_transport(geom='nonlinear',
                                diam=3.626,
                                well_depth=481.8,
                                rot_relax=1.0),
        note='t06/02')

species(name='ch2oh',
        atoms='C:1 H:3 O:1',
        thermo=(NASA([200.00, 1000.00],
                     [ 4.47834367E+00, -1.35070310E-03,  2.78484980E-05,