ELEMENTS
O  H  C  N  AR  HE
END       


SPECIES
POSF11498        iC4H8            C3H6             C2H4
CH4              CH3              H2               H                
N2               
END


REACTIONS
!R1
POSF11498    =>2.4625807iC4H8+0.5710129C3H6+0.2461822C2H4+1.055726H+0.944274CH3 2.83E+26 -2.58 80197.0
!R2
POSF11498+H  =>H2+2.6513789iC4H8+0.6147906C3H6+0.2650562C2H4+0.98H+0.02CH3 8.72E+05  2.40 2580.0
!R3
POSF11498+CH3=>CH4+2.6513789iC4H8+0.6147906C3H6+0.2650562C2H4+0.98H+0.02CH3 4.64E+00  3.46 4600.0
END
