"""
****************************************************************************

 HyChem model for GEVO ATJ (C1)
 Version 2.1 - High temperature chemistry

 K. Wang, R. Xu, T. Parise, J. Shao, A. Movaghar, D.J. Lee, J. Park, Y. Gao,
 T. Lu, F.N. Egolfopoulos, D.F. Davidson, R.K. Hanson, C.T. Bowman, H. Wang,
 A Physics-based approach to modeling real-fuel combustion chemistry -
 IV. HyChem Modeling of Combustion Kinetics of a Bio-derived Jet Fuel and
 its Blends with a Conventional Jet A, Combustion and Flame in press (2018).

 Please contact Hai Wang at haiwang@stanford.edu for questions and comments.

****************************************************************************

 Model description: Seven reaction steps to describe C1 thermal
 decomposition and USC Mech IIa as the foundational fuel chemistry model.
 The cracked products considered are i-C4H8, C3H6, C2H4, H2, CH4, CH3, and H.
 The oxidation kinetics of these cracking products are described by USC Mech IIa.

****************************************************************************
"""

units(length='cm', time='s', quantity='mol', act_energy='cal/mol')

ideal_gas(name='gas',
          elements="O H C N Ar He",
          species="""POSF11498  C2H4       CH4        C3H6       iC4H8
                     C4H81      H2         C2H6       CO         C2H2
                     pC3H4      aC3H4      CH3        O2         H
                     OH         HO2        O          H2O        H2O2
                     CH2        CH2*       HCO        CH2O       CH3O
                     CO2        C2H3       C2H5       HCCO       CH2CO
                     CH3CO      CH2CHO     C3H3       aC3H5      CH3CCH2
                     iC3H7      C2H3CHO    iC4H7      C5H5       C6H5
                     C6H5O      N2""",
          reactions='all',
          initial_state=state(temperature=300.0, pressure=OneAtm))

#-------------------------------------------------------------------------------
# Species data
#-------------------------------------------------------------------------------

species(name='POSF11498',
        atoms='C:13 H:28',
        thermo=(NASA([298.00, 1000.00],
                     [ 4.21777530E+00,  9.30842010E-02,  8.07107430E-05,
                      -1.74530840E-07,  7.99705090E-11, -4.70178360E+04,
                       1.84367490E+01]),
                NASA([1000.00, 3000.00],
                     [ 3.36430400E+01,  6.79280910E-02, -2.05460000E-05,
                       2.49695640E-09, -6.96320510E-14, -5.83616720E+04,
                      -1.48040480E+02])),
        note='S07/15')

species(name='C2H4',
        atoms='C:2 H:4',
        thermo=(NASA([200.00, 1000.00],
                     [ 3.95920148E+00, -7.57052247E-03,  5.70990292E-05,
                      -6.91588753E-08,  2.69884373E-11,  5.08977593E+03,
                       4.09733096E+00]),
                NASA([1000.00, 3500.00],
                     [ 2.03611116E+00,  1.46454151E-02, -6.71077915E-06,
                       1.47222923E-09, -1.25706061E-13,  4.93988614E+03,
                       1.03053693E+01])),
        note='L1/91')

species(name='CH4',
        atoms='C:1 H:4',
        thermo=(NASA([200.00, 1000.00],
                     [ 5.14987613E+00, -1.36709788E-02,  4.91800599E-05,
                      -4.84743026E-08,  1.66693956E-11, -1.02466476E+04,
                      -4.64130376E+00]),
                NASA([1000.00, 3500.00],
                     [ 7.48514950E-02,  1.33909467E-02, -5.73285809E-06,
                       1.22292535E-09, -1.01815230E-13, -9.46834459E+03,
                       1.84373180E+01])),
        note='L8/88')

species(name='C3H6',
        atoms='C:3 H:6',
        thermo=(NASA([300.00, 1000.00],
                     [ 1.49330700E+00,  2.09251800E-02,  4.48679400E-06,
                      -1.66891200E-08,  7.15814600E-12,  1.07482600E+03,
                       1.61453400E+01]),
                NASA([1000.00, 5000.00],
                     [ 6.73225700E+00,  1.49083400E-02, -4.94989900E-06,
                       7.21202200E-10, -3.76620400E-14, -9.23570300E+02,
                      -1.33133500E+01])),
        note='120186')

species(name='iC4H8',
        atoms='C:4 H:8',
        thermo=(NASA([300.00, 1000.00],
                     [ 2.64714050E+00,  2.59029570E-02,  8.19853540E-06,
                      -2.21932590E-08,  8.89585800E-12, -4.03730690E+03,
                       1.26763880E+01]),
                NASA([1000.00, 5000.00],
                     [ 4.46094700E+00,  2.96114870E-02, -1.30771290E-05,
                       2.65719340E-09, -2.01347130E-13, -5.00667580E+03,
                       1.06715490E+00])),
        note='T6/83')

species(name='C4H81',
        atoms='C:4 H:8',
        thermo=(NASA([300.00, 1000.00],
                     [ 1.18113800E+00,  3.08533800E-02,  5.08652470E-06,
                      -2.46548880E-08,  1.11101930E-11, -1.79040040E+03,
                       2.10624690E+01]),
                NASA([1000.00, 5000.00],
                     [ 2.05358410E+00,  3.43505070E-02, -1.58831970E-05,
                       3.30896620E-09, -2.53610450E-13, -2.13972310E+03,
                       1.55432010E+01])),
        note='T6/83')

species(name='H2',
        atoms='H:2',
        thermo=(NASA([200.00, 1000.00],
                     [ 2.34433112E+00,  7.98052075E-03, -1.94781510E-05,
                       2.01572094E-08, -7.37611761E-12, -9.17935173E+02,
                       6.83010238E-01]),
                NASA([1000.00, 3500.00],
                     [ 3.33727920E+00, -4.94024731E-05,  4.99456778E-07,
                      -1.79566394E-10,  2.00255376E-14, -9.50158922E+02,
                      -3.20502331E+00])),
        note='TPIS78')

species(name='C2H6',
        atoms='C:2 H:6',
        thermo=(NASA([200.00, 1000.00],
                     [ 4.29142492E+00, -5.50154270E-03,  5.99438288E-05,
                      -7.08466285E-08,  2.68685771E-11, -1.15222055E+04,
                       2.66682316E+00]),
                NASA([1000.00, 3500.00],
                     [ 1.07188150E+00,  2.16852677E-02, -1.00256067E-05,
                       2.21412001E-09, -1.90002890E-13, -1.14263932E+04,
                       1.51156107E+01])),
        note='L8/88')

species(name='CO',
        atoms='C:1 O:1',
        thermo=(NASA([200.00, 1000.00],
                     [ 3.57953347E+00, -6.10353680E-04,  1.01681433E-06,
                       9.07005884E-10, -9.04424499E-13, -1.43440860E+04,
                       3.50840928E+00]),
                NASA([1000.00, 3500.00],
                     [ 2.71518561E+00,  2.06252743E-03, -9.98825771E-07,
                       2.30053008E-10, -2.03647716E-14, -1.41518724E+04,
                       7.81868772E+00])),
        note='TPIS79')

species(name='C2H2',
        atoms='C:2 H:2',
        thermo=(NASA([200.00, 1000.00],
                     [ 8.08681094E-01,  2.33615629E-02, -3.55171815E-05,
                       2.80152437E-08, -8.50072974E-12,  2.64289807E+04,
                       1.39397051E+01]),
                NASA([1000.00, 3500.00],
                     [ 4.14756964E+00,  5.96166664E-03, -2.37294852E-06,
                       4.67412171E-10, -3.61235213E-14,  2.59359992E+04,
                      -1.23028121E+00])),
        note='L1/91')

species(name='pC3H4',
        atoms='C:3 H:4',
        thermo=(NASA([200.00, 1000.00],
                     [ 2.68038690E+00,  1.57996510E-02,  2.50705960E-06,
                      -1.36576230E-08,  6.61542850E-12,  2.08023740E+04,
                       9.87693510E+00]),
                NASA([1000.00, 6000.00],
                     [ 6.02524000E+00,  1.13365420E-02, -4.02233910E-06,
                       6.43760630E-10, -3.82996350E-14,  1.96209420E+04,
                      -8.60437850E+00])),
        note='T2/90')

species(name='aC3H4',
        atoms='C:3 H:4',
        thermo=(NASA([200.00, 1000.00],
                     [ 2.61304450E+00,  1.21225750E-02,  1.85398800E-05,
                      -3.45251490E-08,  1.53350790E-11,  2.15415670E+04,
                       1.02261390E+01]),
                NASA([1000.00, 6000.00],
                     [ 6.31687220E+00,  1.11337280E-02, -3.96293780E-06,
                       6.35642380E-10, -3.78755400E-14,  2.01174950E+04,
                      -1.09957660E+01])),
        note='L8/89')

species(name='CH3',
        atoms='C:1 H:3',
        thermo=(NASA([200.00, 1000.00],
                     [ 3.67359040E+00,  2.01095175E-03,  5.73021856E-06,
                      -6.87117425E-09,  2.54385734E-12,  1.64449988E+04,
                       1.60456433E+00]),
                NASA([1000.00, 3500.00],
                     [ 2.28571772E+00,  7.23990037E-03, -2.98714348E-06,
                       5.95684644E-10, -4.67154394E-14,  1.67755843E+04,
                       8.48007179E+00])),
        note='L11/89')

species(name='O2',
        atoms='O:2',
        thermo=(NASA([200.00, 1000.00],
                     [ 3.78245636E+00, -2.99673416E-03,  9.84730201E-06,
                      -9.68129509E-09,  3.24372837E-12, -1.06394356E+03,
                       3.65767573E+00]),
                NASA([1000.00, 3500.00],
                     [ 3.28253784E+00,  1.48308754E-03, -7.57966669E-07,
                       2.09470555E-10, -2.16717794E-14, -1.08845772E+03,
                       5.45323129E+00])),
        note='TPIS89')

species(name='H',
        atoms='H:1',
        thermo=(NASA([200.00, 1000.00],
                     [ 2.50000000E+00,  7.05332819E-13, -1.99591964E-15,
                       2.30081632E-18, -9.27732332E-22,  2.54736599E+04,
                      -4.46682853E-01]),
                NASA([1000.00, 3500.00],
                     [ 2.50000001E+00, -2.30842973E-11,  1.61561948E-14,
                      -4.73515235E-18,  4.98197357E-22,  2.54736599E+04,
                      -4.46682914E-01])),
        note='L7/88')

species(name='OH',
        atoms='H:1 O:1',
        thermo=(NASA([200.00, 1000.00],
                     [ 4.12530561E+00, -3.22544939E-03,  6.52764691E-06,
                      -5.79853643E-09,  2.06237379E-12,  3.38153812E+03,
                      -6.90432960E-01]),
                NASA([1000.00, 6000.00],
                     [ 2.86472886E+00,  1.05650448E-03, -2.59082758E-07,
                       3.05218674E-11, -1.33195876E-15,  3.71885774E+03,
                       5.70164073E+00])),
        note='S9/01')

species(name='HO2',
        atoms='H:1 O:2',
        thermo=(NASA([200.00, 1000.00],
                     [ 4.30179801E+00, -4.74912051E-03,  2.11582891E-05,
                      -2.42763894E-08,  9.29225124E-12,  2.94808040E+02,
                       3.71666245E+00]),
                NASA([1000.00, 3500.00],
                     [ 4.01721090E+00,  2.23982013E-03, -6.33658150E-07,
                       1.14246370E-10, -1.07908535E-14,  1.11856713E+02,
                       3.78510215E+00])),
        note='L5/89')

species(name='O',
        atoms='O:1',
        thermo=(NASA([200.00, 1000.00],
                     [ 3.16826710E+00, -3.27931884E-03,  6.64306396E-06,
                      -6.12806624E-09,  2.11265971E-12,  2.91222592E+04,
                       2.05193346E+00]),
                NASA([1000.00, 3500.00],
                     [ 2.56942078E+00, -8.59741137E-05,  4.19484589E-08,
                      -1.00177799E-11,  1.22833691E-15,  2.92175791E+04,
                       4.78433864E+00])),
        note='L1/90')

species(name='H2O',
        atoms='H:2 O:1',
        thermo=(NASA([200.00, 1000.00],
                     [ 4.19864056E+00, -2.03643410E-03,  6.52040211E-06,
                      -5.48797062E-09,  1.77197817E-12, -3.02937267E+04,
                      -8.49032208E-01]),
                NASA([1000.00, 3500.00],
                     [ 3.03399249E+00,  2.17691804E-03, -1.64072518E-07,
                      -9.70419870E-11,  1.68200992E-14, -3.00042971E+04,
                       4.96677010E+00])),
        note='L8/89')

species(name='H2O2',
        atoms='H:2 O:2',
        thermo=(NASA([200.00, 1000.00],
                     [ 4.27611269E+00, -5.42822417E-04,  1.67335701E-05,
                      -2.15770813E-08,  8.62454363E-12, -1.77025821E+04,
                       3.43505074E+00]),
                NASA([1000.00, 3500.00],
                     [ 4.16500285E+00,  4.90831694E-03, -1.90139225E-06,
                       3.71185986E-10, -2.87908305E-14, -1.78617877E+04,
                       2.91615662E+00])),
        note='L7/88')

species(name='CH2',
        atoms='C:1 H:2',
        thermo=(NASA([200.00, 1000.00],
                     [ 3.76267867E+00,  9.68872143E-04,  2.79489841E-06,
                      -3.85091153E-09,  1.68741719E-12,  4.60040401E+04,
                       1.56253185E+00]),
                NASA([1000.00, 3500.00],
                     [ 2.87410113E+00,  3.65639292E-03, -1.40894597E-06,
                       2.60179549E-10, -1.87727567E-14,  4.62636040E+04,
                       6.17119324E+00])),
        note='LS/93')

species(name='CH2*',
        atoms='C:1 H:2',
        thermo=(NASA([200.00, 1000.00],
                     [ 4.19860411E+00, -2.36661419E-03,  8.23296220E-06,
                      -6.68815981E-09,  1.94314737E-12,  5.04968163E+04,
                      -7.69118967E-01]),
                NASA([1000.00, 3500.00],
                     [ 2.29203842E+00,  4.65588637E-03, -2.01191947E-06,
                       4.17906000E-10, -3.39716365E-14,  5.09259997E+04,
                       8.62650169E+00])),
        note='LS/93')

species(name='HCO',
        atoms='C:1 H:1 O:1',
        thermo=(NASA([200.00, 1000.00],
                     [ 4.22118584E+00, -3.24392532E-03,  1.37799446E-05,
                      -1.33144093E-08,  4.33768865E-12,  3.83956496E+03,
                       3.39437243E+00]),
                NASA([1000.00, 3500.00],
                     [ 2.77217438E+00,  4.95695526E-03, -2.48445613E-06,
                       5.89161778E-10, -5.33508711E-14,  4.01191815E+03,
                       9.79834492E+00])),
        note='L12/89')

species(name='CH2O',
        atoms='C:1 H:2 O:1',
        thermo=(NASA([200.00, 1000.00],
                     [ 4.79372315E+00, -9.90833369E-03,  3.73220008E-05,
                      -3.79285261E-08,  1.31772652E-11, -1.43089567E+04,
                       6.02812900E-01]),
                NASA([1000.00, 3500.00],
                     [ 1.76069008E+00,  9.20000082E-03, -4.42258813E-06,
                       1.00641212E-09, -8.83855640E-14, -1.39958323E+04,
                       1.36563230E+01])),
        note='L8/88')

species(name='CH3O',
        atoms='C:1 H:3 O:1',
        thermo=(NASA([200.00, 1000.00],
                     [ 3.71180502E+00, -2.80463306E-03,  3.76550971E-05,
                      -4.73072089E-08,  1.86588420E-11,  1.29569760E+03,
                       6.57240864E+00]),
                NASA([1000.00, 6000.00],
                     [ 4.75779238E+00,  7.44142474E-03, -2.69705176E-06,
                       4.38090504E-10, -2.63537098E-14,  3.78111940E+02,
                      -1.96680028E+00])),
        note='IU1/03')

species(name='CO2',
        atoms='C:1 O:2',
        thermo=(NASA([200.00, 1000.00],
                     [ 2.35677352E+00,  8.98459677E-03, -7.12356269E-06,
                       2.45919022E-09, -1.43699548E-13, -4.83719697E+04,
                       9.90105222E+00]),
                NASA([1000.00, 3500.00],
                     [ 3.85746029E+00,  4.41437026E-03, -2.21481404E-06,
                       5.23490188E-10, -4.72084164E-14, -4.87591660E+04,
                       2.27163806E+00])),
        note='L7/88')

species(name='C2H3',
        atoms='C:2 H:3',
        thermo=(NASA([200.00, 1000.00],
                     [ 3.21246645E+00,  1.51479162E-03,  2.59209412E-05,
                      -3.57657847E-08,  1.47150873E-11,  3.48598468E+04,
                       8.51054025E+00]),
                NASA([1000.00, 3500.00],
                     [ 3.01672400E+00,  1.03302292E-02, -4.68082349E-06,
                       1.01763288E-09, -8.62607041E-14,  3.46128739E+04,
                       7.78732378E+00])),
        note='L2/92')

species(name='C2H5',
        atoms='C:2 H:5',
        thermo=(NASA([200.00, 1000.00],
                     [ 4.30646568E+00, -4.18658892E-03,  4.97142807E-05,
                      -5.99126606E-08,  2.30509004E-11,  1.28416265E+04,
                       4.70720924E+00]),
                NASA([1000.00, 3500.00],
                     [ 1.95465642E+00,  1.73972722E-02, -7.98206668E-06,
                       1.75217689E-09, -1.49641576E-13,  1.28575200E+04,
                       1.34624343E+01])),
        note='L12/92')

species(name='HCCO',
        atoms='C:2 H:1 O:1',
        thermo=(NASA([300.00, 1000.00],
                     [ 2.25172140E+00,  1.76550210E-02, -2.37291010E-05,
                       1.72757590E-08, -5.06648110E-12,  2.00594490E+04,
                       1.24904170E+01]),
                NASA([1000.00, 4000.00],
                     [ 5.62820580E+00,  4.08534010E-03, -1.59345470E-06,
                       2.86260520E-10, -1.94078320E-14,  1.93272150E+04,
                      -3.93025950E+00])),
        note='SRIC91')

species(name='CH2CO',
        atoms='C:2 H:2 O:1',
        thermo=(NASA([200.00, 1000.00],
                     [ 2.13583630E+00,  1.81188721E-02, -1.73947474E-05,
                       9.34397568E-09, -2.01457615E-12, -7.27000000E+03,
                       1.22156480E+01]),
                NASA([1000.00, 3500.00],
                     [ 4.51129732E+00,  9.00359745E-03, -4.16939635E-06,
                       9.23345882E-10, -7.94838201E-14, -7.77850000E+03,
                       6.32247205E-01])),
        note='D05/90')

species(name='CH3CO',
        atoms='C:2 H:3 O:1',
        thermo=(NASA([200.00, 1000.00],
                     [ 4.16342570E+00, -2.32616100E-04,  3.42678200E-05,
                      -4.41052270E-08,  1.72756120E-11, -2.65745290E+03,
                       7.34682800E+00]),
                NASA([1000.00, 6000.00],
                     [ 5.94477310E+00,  7.86672050E-03, -2.88658820E-06,
                       4.72708750E-10, -2.85998610E-14, -3.78730750E+03,
                      -5.01367510E+00])),
        note='T9/92')

species(name='CH2CHO',
        atoms='C:2 H:3 O:1',
        thermo=(NASA([300.00, 1000.00],
                     [ 3.40906240E+00,  1.07385740E-02,  1.89149250E-06,
                      -7.15858310E-09,  2.86738510E-12,  6.20000000E+01,
                       9.57145350E+00]),
                NASA([1000.00, 5000.00],
                     [ 5.97566990E+00,  8.13059140E-03, -2.74362450E-06,
                       4.07030410E-10, -2.17601710E-14, -9.69500000E+02,
                      -5.03208790E+00])),
        note='D05/83')

species(name='C3H3',
        atoms='C:3 H:3',
        thermo=(NASA([200.00, 1000.00],
                     [ 1.35110927E+00,  3.27411223E-02, -4.73827135E-05,
                       3.76309808E-08, -1.18540923E-11,  4.01057783E+04,
                       1.52058924E+01]),
                NASA([1000.00, 6000.00],
                     [ 7.14221880E+00,  7.61902005E-03, -2.67459950E-06,
                       4.24914801E-10, -2.51475415E-14,  3.89087427E+04,
                      -1.25848436E+01])),
        note='T5/97')

species(name='aC3H5',
        atoms='C:3 H:5',
        thermo=(NASA([300.00, 1000.00],
                     [ 1.36318350E+00,  1.98138210E-02,  1.24970600E-05,
                      -3.33555550E-08,  1.58465710E-11,  1.92456290E+04,
                       1.71732140E+01]),
                NASA([1000.00, 3000.00],
                     [ 6.50078770E+00,  1.43247310E-02, -5.67816320E-06,
                       1.10808010E-09, -9.03638870E-14,  1.74824490E+04,
                      -1.12430500E+01])),
        note='PD5/98')

species(name='CH3CCH2',
        atoms='C:3 H:5',
        thermo=(NASA([300.00, 1000.00],
                     [ 1.73292090E+00,  2.23946200E-02, -5.14906110E-06,
                      -6.75964660E-09,  3.82532110E-12,  2.90404980E+04,
                       1.65688780E+01]),
                NASA([1000.00, 3000.00],
                     [ 5.42555280E+00,  1.55110720E-02, -5.66783500E-06,
                       7.92243880E-10, -1.68780340E-14,  2.78430270E+04,
                      -3.35271840E+00])),
        note='PD5/98')

species(name='iC3H7',
        atoms='C:3 H:7',
        thermo=(NASA([300.00, 1000.00],
                     [ 1.44491990E+00,  2.09991120E-02,  7.70362220E-06,
                      -1.84762530E-08,  7.12829620E-12,  9.42237240E+03,
                       2.01163170E+01]),
                NASA([1000.00, 3000.00],
                     [ 6.51927410E+00,  1.72201040E-02, -5.73642170E-06,
                       8.41307320E-10, -4.45659130E-14,  7.32271930E+03,
                      -9.08302150E+00])),
        note='P11/94')

species(name='C2H3CHO',
        atoms='C:3 H:4 O:1',
        thermo=(NASA([300.00, 1000.00],
                     [ 1.27134980E+00,  2.62310540E-02, -9.29123050E-06,
                      -4.78372720E-09,  3.34805430E-12, -9.33573440E+03,
                       1.94980770E+01]),
                NASA([1000.00, 5000.00],
                     [ 5.81118680E+00,  1.71142560E-02, -7.48341610E-06,
                       1.42522490E-09, -9.17468410E-14, -1.07840540E+04,
                      -4.85880040E+00])),
        note='USC/07')

species(name='iC4H7',
        atoms='C:4 H:7',
        thermo=(NASA([300.00, 1000.00],
                     [-1.03758900E+00,  4.55666670E-02, -3.04762310E-05,
                       7.11025680E-09,  9.96857220E-13,  1.48964580E+04,
                       2.98636630E+01]),
                NASA([1000.00, 5000.00],
                     [ 7.14859390E+00,  2.21896710E-02, -8.44001720E-06,
                       1.31333530E-09, -5.16179270E-14,  1.27122940E+04,
                      -1.21311830E+01])),
        note='USC/07')

species(name='C5H5',
        atoms='C:5 H:5',
        thermo=(NASA([300.00, 1000.00],
                     [ 9.83498220E-01,  3.36514760E-02, -1.10541810E-07,
                      -3.67433940E-08,  2.31411840E-11,  2.96260000E+04,
                       1.65855190E+01]),
                NASA([1000.00, 2000.00],
                     [ 7.47439380E+00,  1.60127330E-02, -6.48231480E-09,
                      -3.58197030E-09,  9.23650710E-13,  2.80860000E+04,
                      -1.61330000E+01])),
        note='T12/89')

species(name='C6H5',
        atoms='C:6 H:5',
        thermo=(NASA([300.00, 1000.00],
                     [-3.69314530E+00,  5.21789680E-02, -2.55584270E-05,
                      -7.06611210E-09,  7.58339750E-12,  3.97795900E+04,
                       4.13325350E+01]),
                NASA([1000.00, 3000.00],
                     [ 8.59731100E+00,  2.22416300E-02, -8.71999780E-06,
                       1.37887850E-09, -5.31460560E-14,  3.62610470E+04,
                      -2.29546430E+01])),
        note='D11/99')

species(name='C6H5O',
        atoms='C:6 H:5 O:1',
        thermo=(NASA([200.00, 1000.00],
                     [-4.66204455E-01,  4.13443975E-02,  1.32412991E-05,
                      -5.72872769E-08,  2.89763707E-11,  4.77858391E+03,
                       2.76990274E+01]),
                NASA([1000.00, 6000.00],
                     [ 1.37221720E+01,  1.74688771E-02, -6.35504520E-06,
                       1.03492308E-09, -6.23410504E-14,  2.87274751E+02,
                      -4.88181680E+01])),
        note='T05/02')

species(name='N2',
        atoms='N:2',
        thermo=(NASA([300.00, 1000.00],
                     [ 3.29867700E+00,  1.40824040E-03, -3.96322200E-06,
                       5.64151500E-09, -2.44485400E-12, -1.02089990E+03,
                       3.95037200E+00]),
                NASA([1000.00, 5000.00],
                     [ 2.92664000E+00,  1.48797680E-03, -5.68476000E-07,
                       1.00970380E-10, -6.75335100E-15, -9.22797700E+02,
                       5.98052800E+00])),
        note='121286')

#-------------------------------------------------------------------------------
# Reaction data
#-------------------------------------------------------------------------------
# For ChemKin Pro users, please uncomment the following line and comment out the above "REACTIONS" line
# REACTIONS  MAXSP=12
# R1

# Reaction 1
reaction('POSF11498 => 2.4625807 iC4H8 + 0.5710129 C3H6 + 0.2461822 C2H4 + 1.055726 H + 0.944274 CH3', [2.830000e+26, -2.58, 80197.0])
# R2

# Reaction 2
reaction('POSF11498 + H => H2 + 2.6513789 iC4H8 + 0.6147906 C3H6 + 0.2650562 C2H4 + 0.98 H + 0.02 CH3', [8.720000e+05, 2.4, 2580.0])
# R3

# Reaction 3
reaction('POSF11498 + CH3 => CH4 + 2.6513789 iC4H8 + 0.6147906 C3H6 + 0.2650562 C2H4 + 0.98 H + 0.02 CH3', [4.640000e+00, 3.46, 4600.0])
# R4

# Reaction 4
reaction('POSF11498 + OH => H2O + 2.6513789 iC4H8 + 0.6147906 C3H6 + 0.2650562 C2H4 + 0.98 H + 0.02 CH3', [4.880000e+10, 0.51, 64.0])
# R5

# Reaction 5
reaction('POSF11498 + O2 => HO2 + 2.6513789 iC4H8 + 0.6147906 C3H6 + 0.2650562 C2H4 + 0.98 H + 0.02 CH3', [1.490000e+15, 0.0, 43000.0])
# R6

# Reaction 6
reaction('POSF11498 + HO2 => H2O2 + 2.6513789 iC4H8 + 0.6147906 C3H6 + 0.2650562 C2H4 + 0.98 H + 0.02 CH3', [9.030000e+03, 2.77, 10500.0])
# R7

# Reaction 7
reaction('POSF11498 + O => OH + 2.6513789 iC4H8 + 0.6147906 C3H6 + 0.2650562 C2H4 + 0.98 H + 0.02 CH3', [7.850000e+04, 2.5, 1110.0])
# R8

# Reaction 8
reaction('H + O2 <=> O + OH', [2.644000e+16, -0.6707, 17041.0])
# GRI3.0 * 1.00
# R9

# Reaction 9
reaction('O + H2 <=> H + OH', [4.589000e+04, 2.7, 6260.0])
# GRI3.0 * 1.19
# R10

# Reaction 10
reaction('OH + H2 <=> H + H2O', [1.734000e+08, 1.51, 3430.0])
# GRI3.0 * 0.80
# R11

# Reaction 11
reaction('OH + OH <=> O + H2O', [3.973000e+04, 2.4, -2110.0])
# GRI3.0 * 1.11
# R12

# Reaction 12
three_body_reaction('H + H + M <=> H2 + M', [1.780000e+18, -1.0, 0.0],
                    efficiencies='CO2:0.0 H2:0.0 H2O:0.0')
# GRI3.0 * 1.78
# R13

# Reaction 13
reaction('H + H + H2 <=> H2 + H2', [9.000000e+16, -0.6, 0.0])
# GRI3.0
# R14

# Reaction 14
reaction('H + H + H2O <=> H2 + H2O', [5.624000e+19, -1.25, 0.0])
# GRI3.0 * 0.94
# R15

# Reaction 15
reaction('H + H + CO2 <=> H2 + CO2', [5.500000e+20, -2.0, 0.0])
# GRI3.0
# R16

# Reaction 16
three_body_reaction('H + OH + M <=> H2O + M', [4.400000e+22, -2.0, 0.0],
                    efficiencies='CO:1.75 CO2:3.6 H2:2.0 H2O:6.3')
# GRI3.0 * 2.00
# R17

# Reaction 17
three_body_reaction('O + H + M <=> OH + M', [9.428000e+18, -1.0, 0.0],
                    efficiencies='CO:1.75 CO2:3.6 H2:2.0 H2O:12.0')
# 86TSA/HAM * 2.00
# R18

# Reaction 18
three_body_reaction('O + O + M <=> O2 + M', [1.200000e+17, -1.0, 0.0],
                    efficiencies='CO:1.75 CO2:3.6 H2:2.4 H2O:15.4')
# GRI3.0
# R19

# Reaction 19
falloff_reaction('H + O2 (+ M) <=> HO2 (+ M)',
                 kf=[5.116000e+12, 0.44, 0.0],
                 kf0=[6.328000e+19, -1.4, 0.0],
                 efficiencies='CO:1.09 CO2:2.18 H2O:11.89 O2:0.85',
                 falloff=Troe(A=0.5, T3=1e-30, T1=1e+30))
# 00 TROE - Based on M=N2 * 1.10
# R20

# Reaction 20
reaction('H2 + O2 <=> HO2 + H', [5.916000e+05, 2.433, 53502.0])
# 00MIC/SUT * 0.80
# R21

# Reaction 21
falloff_reaction('OH + OH (+ M) <=> H2O2 (+ M)',
                 kf=[1.110000e+14, -0.37, 0.0],
                 kf0=[2.010000e+17, -0.584, -2293.0],
                 efficiencies='CO:1.75 CO2:3.6 H2:2.0 H2O:6.0',
                 falloff=Troe(A=0.7346, T3=94.0, T1=1756.0, T2=5182.0))
# 88ZEL/EWI * 1.50
# Fit 88ZEL/EWI and 92BAU/COB
# H2O=6xN2 88ZEL/EWI
# R22

# Reaction 22
reaction('HO2 + H <=> O + H2O', [3.970000e+12, 0.0, 671.0])
# GRI3.0
# R23

# Reaction 23
reaction('HO2 + H <=> OH + OH', [7.485000e+13, 0.0, 295.0])
# 99MUE/KIM * 1.06
# R24

# Reaction 24
reaction('HO2 + O <=> OH + O2', [4.000000e+13, 0.0, 0.0])
# GRI3.0 * 2.00
# R25

# Reaction 25
reaction('HO2 + HO2 <=> O2 + H2O2', [1.300000e+11, 0.0, -1630.0],
         options='duplicate')
# 90HIP/TRO
# R26

# Reaction 26
reaction('HO2 + HO2 <=> O2 + H2O2', [3.658000e+14, 0.0, 12000.0],
         options='duplicate')
# 90HIP/TRO * 0.87
# R27

# Reaction 27
reaction('OH + HO2 <=> H2O + O2', [1.410000e+18, -1.76, 60.0],
         options='duplicate')
#  Wang07
# R28

# Reaction 28
reaction('OH + HO2 <=> H2O + O2', [1.120000e+85, -22.3, 26900.0],
         options='duplicate')
#  Wang07
# R29

# Reaction 29
reaction('OH + HO2 <=> H2O + O2', [5.370000e+70, -16.72, 32900.0],
         options='duplicate')
#  Wang07
# R30

# Reaction 30
reaction('OH + HO2 <=> H2O + O2', [2.510000e+12, 2.0, 40000.0],
         options='duplicate')
#  Wang07
# R31

# Reaction 31
reaction('OH + HO2 <=> H2O + O2', [1.000000e+136, -40.0, 34800.0],
         options='duplicate')
#  Wang07
# R32

# Reaction 32
reaction('H2O2 + H <=> HO2 + H2', [6.050000e+06, 2.0, 5200.0])
# GRI3.0 * 0.50
# R33

# Reaction 33
reaction('H2O2 + H <=> OH + H2O', [2.410000e+13, 0.0, 3970.0])
# 86TSA/HAM
# R34

# Reaction 34
reaction('H2O2 + O <=> OH + HO2', [9.630000e+06, 2.0, 3970.0])
# 86TSA/HAM
# R35

# Reaction 35
reaction('H2O2 + OH <=> HO2 + H2O', [2.000000e+12, 0.0, 427.0],
         options='duplicate')
# 95HIP/NEU
# R36

# Reaction 36
reaction('H2O2 + OH <=> HO2 + H2O', [2.670000e+41, -7.0, 37600.0],
         options='duplicate')
# Refit95HIP/NEU
# 2.2E14 MAX K
# R37

# Reaction 37
falloff_reaction('CO + O (+ M) <=> CO2 (+ M)',
                 kf=[1.362000e+10, 0.0, 2384.0],
                 kf0=[1.173000e+24, -2.79, 4191.0],
                 efficiencies='CO:1.75 CO2:3.6 H2:2.0 H2O:12.0')
# 99MUE/KIM * 0.76
# R38

# Reaction 38
reaction('CO + OH <=> CO2 + H', [7.046000e+04, 2.053, -355.67],
         options='duplicate')
# 06JOS/WANG
# R39

# Reaction 39
reaction('CO + OH <=> CO2 + H', [5.757000e+12, -0.664, 331.83],
         options='duplicate')
# 06JOS/WANG
# R40

# Reaction 40