"""
 ************************************************************************
 ************************************************************************
 ******************* For further documentation of mechanism:  ***********
 ******************* see references below and their citations ***********
 ************************************************************************
 ************************************************************************

 Hydrocarbon subset

 H. Hashemi, J.M. Christensen, S. Gersen, H. Levinsky, S.J. Klippenstein, P. Glarborg,
 High-Pressure Oxidation of Methane, Combust. Flame 172 (2016) 349-364.

 J. Gimenez-Lopez, C.T. Rasmussen, H. Hashemi, M.U. Alzueta, Y. Gao, P. Marshall, C.F. Goldsmith, P. Glarborg,
 Experimental and Kinetic Modeling Study of C2H2 Oxidation at High Pressure, Int. J. Chem. Kinet. 48 (2016) 724-738.

 H. Hashemi, J.G. Jacobsen, C.T. Rasmussen, J.M. Christensen, P. Glarborg, S. Gersen, M. van Essen, H.B. Levinsky, S.J. Klippenstein,
 High-Pressure Oxidation of Ethane, Combust. Flame 182 (2017) 150-166.


 Nitrogen subset

 P. Glarborg, J.A. Miller, B. Ruscic, S.J. Klippenstein,
 Modeling Nitrogen Chemistry in Combustion,
 Prog. Energy Combust. Sci. 67 (2017) 31-68.


"""

units(length='cm', time='s', quantity='mol', act_energy='cal/mol')

ideal_gas(name='gas',
          elements="O H C N He Ar",
          species="""H2          O2          O3          H
                     O           OH          HO2         H2O
                     H2O2        CO          CO2         CH4
                     CH3         CH2         CH2(S)      CH
                     C           CH3OH       CH3O        CH2OH
                     CH2O        HCOH        HCO         HOCO
                     HOCHO       OCHO        HOCH2O      CH3OOH
                     CH3OO       CH2OOH      C2H6        C2H5
                     C2H4        C2H3        C2H2        H2CC
                     C2H         C2          CH3CH2OH    CH3CHOH
                     CH3CH2O     CH2CH2OH    CH3CHO      CH2CHOH
                     cC2H4O      CHCHOH      cC2H3O      CH2CHO
                     CH3CO       CH2CO       CHCHO       HCCOH
                     HCCO        C2O         CH3CH2OOH   CH3CH2OO
                     CH3CHOOH    CH2CH2OOH   CH2CHOOH    HOCH2CH2OO
                     CH2CHOO     OCHCHO      OCHCO       CH3C(O)OOH
                     CH3C(O)OO   CH3C(O)O    NO          HCN
                     NH3         NH2         NH          N
                     NNH         N2H4        N2H3        N2H2
                     H2NN        NH2OH       H2NO        HNOH
                     HNO         HON         NO2         HONO
                     HNO2        NO3         HONO2       N2O
                     HNC         CN          HNCO        HOCN
                     HCNO        NCO         NCN         HNCN
                     NCNO        NCNOH       HNCNH       NCCN
                     CH3NO       CH2NO       C2H5NO      CH3CHNO
                     CH2CHNO     CHCHNO      CH3NO2      CH2NO2
                     C2H5NO2     CH2CH2NO2   CH3CHNO2    CH3ONO
                     CH3ONO2     CH3CH2ONO   CH3CH2ONO2  CH3NH2
                     CH2NH2      CH3NH       CH2NH       H2CN
                     HCNH        CH3CH2NH2   CH2CH2NH2   CH3CHNH2
                     CH3CH2NH    CH2CHNH2    CH3CHNH     CH2CHNH
                     CH2CNH2     CH3CNH      CH3CHN      CHCHNH2
                     CH3CN       CHCNH2      CH2CNH      CH2CHN
                     CH2CHN(S)   c-C2H3N     CH2CN       CHCNH
                     H2NCHO      H2NCO       CH3NHCH3    CH3NHCH2
                     CH3NCH3     CH3NCH2     CH2NCH2     CH3NCH
                     AR          HE          N2""",
          reactions='all',
          transport='Mix',
          initial_state=state(temperature=300.0, pressure=OneAtm))

#-------------------------------------------------------------------------------
# Species data
#-------------------------------------------------------------------------------

species(name='H2',
        atoms='H:2',
        thermo=(NASA([200.00, 1000.00],
                     [ 2.37694204E+00,  7.73916922E-03, -1.88735073E-05,
                       1.95517114E-08, -7.17095663E-12, -9.21173081E+02,
                       5.47184736E-01]),
                NASA([1000.00, 6000.00],
                     [ 2.90207649E+00,  8.68992581E-04, -1.65864430E-07,
                       1.90851899E-11, -9.31121789E-16, -7.97948726E+02,
                      -8.45591320E-01])),
        transport=gas_transport(geom='linear',
                                diam=2.92,
                                well_depth=38.0,
                                polar=0.79,
                                rot_relax=280.0),
        note='ATcT3E')

species(name='O2',
        atoms='O:2',
        thermo=(NASA([200.00, 1000.00],
                     [ 3.78498258E+00, -3.02002233E-03,  9.92029171E-06,
                      -9.77840434E-09,  3.28877702E-12, -1.06413589E+03,
                       3.64780709E+00]),
                NASA([1000.00, 6000.00],
                     [ 3.65980488E+00,  6.59877372E-04, -1.44158172E-07,
                       2.14656037E-11, -1.36503784E-15, -1.21603048E+03,
                       3.42074148E+00])),
        transport=gas_transport(geom='linear',
                                diam=3.458,
                                well_depth=107.4,
                                polar=1.6,
                                rot_relax=3.8),
        note='ATcT3E')

species(name='O3',
        atoms='O:3',
        thermo=(NASA([200.00, 1000.00],
                     [ 3.31673393E+00,  2.68546939E-03,  1.22411660E-05,
                      -2.07427723E-08,  9.22985344E-12,  1.58667815E+04,
                       8.66105917E+00]),
                NASA([1000.00, 6000.00],
                     [ 1.01625308E+01, -7.76896990E-03,  5.47843588E-06,
                      -1.22951829E-09,  8.79720138E-14,  1.34525105E+04,
                      -2.90111737E+01])),
        transport=gas_transport(geom='nonlinear',
                                diam=4.1,
                                well_depth=180.0,
                                rot_relax=2.0),
        note='ATcT3E')

species(name='H',
        atoms='H:1',
        thermo=(NASA([200.00, 1000.00],
                     [ 2.49975925E+00,  6.73824499E-07,  1.11807261E-09,
                      -3.70192126E-12,  2.14233822E-15,  2.54737665E+04,
                      -4.45574009E-01]),
                NASA([1000.00, 6000.00],
                     [ 2.49985211E+00,  2.34582548E-07, -1.16171641E-10,
                       2.25708298E-14, -1.52992005E-18,  2.54738024E+04,
                      -4.45864645E-01])),
        transport=gas_transport(geom='atom',
                                diam=2.05,
                                well_depth=145.0),
        note='ATcT3E')

species(name='O',
        atoms='O:1',
        thermo=(NASA([200.00, 1000.00],
                     [ 3.15906526E+00, -3.21509999E-03,  6.49255543E-06,
                      -5.98755115E-09,  2.06876117E-12,  2.91298453E+04,
                       2.09078344E+00]),
                NASA([1000.00, 6000.00],
                     [ 2.55160087E+00, -3.83085457E-05,  8.43197478E-10,
                       4.01267136E-12, -4.17476574E-16,  2.92287628E+04,
                       4.87617014E+00])),
        transport=gas_transport(geom='atom',
                                diam=2.75,
                                well_depth=80.0),
        note='ATcT3E')

species(name='OH',
        atoms='H:1 O:1',
        thermo=(NASA([200.00, 1000.00],
                     [ 3.97585165E+00, -2.28555291E-03,  4.33442882E-06,
                      -3.59926640E-09,  1.26706930E-12,  3.39341137E+03,
                      -3.55397262E-02]),
                NASA([1000.00, 6000.00],
                     [ 2.84581721E+00,  1.09723818E-03, -2.89121101E-07,
                       4.09099910E-11, -2.31382258E-15,  3.71706610E+03,
                       5.80339915E+00])),
        transport=gas_transport(geom='linear',
                                diam=2.75,
                                well_depth=80.0),
        note='ATcT3E')

species(name='HO2',
        atoms='H:1 O:2',
        thermo=(NASA([200.00, 1000.00],
                     [ 4.26251250E+00, -4.45642032E-03,  2.05164934E-05,
                      -2.35794011E-08,  9.05614257E-12,  2.62442356E+02,
                       3.88223684E+00]),
                NASA([1000.00, 6000.00],
                     [ 4.10564010E+00,  2.04046836E-03, -3.65877562E-07,
                       1.85973044E-11,  4.98818315E-16,  4.32898769E+01,
                       3.30808126E+00])),
        transport=gas_transport(geom='nonlinear',
                                diam=3.458,
                                well_depth=107.4,
                                rot_relax=1.0),
        note='ATcT3E')

species(name='H2O',
        atoms='H:2 O:1',
        thermo=(NASA([200.00, 1000.00],
                     [ 4.20147551E+00, -2.05583546E-03,  6.56547207E-06,
                      -5.52906960E-09,  1.78282605E-12, -3.02950066E+04,
                      -8.60610906E-01]),
                NASA([1000.00, 6000.00],
                     [ 2.73117512E+00,  2.95136995E-03, -8.35359785E-07,
                       1.26088593E-10, -8.40531676E-15, -2.99169082E+04,
                       6.55183000E+00])),
        transport=gas_transport(geom='nonlinear',
                                diam=2.605,
                                well_depth=572.4,
                                dipole=1.844,
                                rot_relax=4.0),
        note='ATcT3E')

species(name='H2O2',
        atoms='H:2 O:2',
        thermo=(NASA([200.00, 1000.00],
                     [ 4.23854160E+00, -2.49610911E-04,  1.59857901E-05,
                      -2.06919945E-08,  8.29766320E-12, -1.76486003E+04,
                       3.58850097E+00]),
                NASA([1000.00, 6000.00],
                     [ 4.54017480E+00,  4.15970971E-03, -1.30876777E-06,
                       2.00823615E-10, -1.15509243E-14, -1.79514029E+04,
                       8.55881745E-01])),
        transport=gas_transport(geom='nonlinear',
                                diam=3.458,
                                well_depth=107.4,
                                rot_relax=3.8),
        note='ATcT3E')

species(name='CO',
        atoms='C:1 O:1',
        thermo=(NASA([200.00, 1000.00],
                     [ 3.59508377E+00, -7.21196937E-04,  1.28238234E-06,
                       6.52429293E-10, -8.21714806E-13, -1.43448968E+04,
                       3.44355598E+00]),
                NASA([1000.00, 6000.00],
                     [ 3.03397274E+00,  1.37328118E-03, -4.96445087E-07,
                       8.10281447E-11, -4.85331749E-15, -1.42586044E+04,
                       6.10076092E+00])),
        transport=gas_transport(geom='linear',
                                diam=3.65,
                                well_depth=98.1,
                                polar=1.95,
                                rot_relax=1.8),
        note='ATcT3E')

species(name='CO2',
        atoms='C:1 O:2',
        thermo=(NASA([200.00, 1000.00],
                     [ 2.20664321E+00,  1.00970086E-02, -9.96338809E-06,
                       5.47155623E-09, -1.27733965E-12, -4.83529864E+04,
                       1.05261943E+01]),
                NASA([1000.00, 6000.00],
                     [ 4.63537470E+00,  2.74559459E-03, -9.98282389E-07,
                       1.61013606E-10, -9.22018642E-15, -4.90203677E+04,
                      -1.92887630E+00])),
        transport=gas_transport(geom='linear',
                                diam=3.763,
                                well_depth=244.0,
                                polar=2.65,
                                rot_relax=2.1),
        note='ATcT3E')

species(name='CH4',
        atoms='C:1 H:4',
        thermo=(NASA([200.00, 1000.00],
                     [ 5.00701913E+00, -1.26484158E-02,  4.66821073E-05,
                      -4.59210565E-08,  1.57633618E-11, -1.02223522E+04,
                      -4.04227377E+00]),
                NASA([1000.00, 6000.00],
                     [ 1.68377091E+00,  1.00130251E-02, -3.31267639E-06,
                       5.30233546E-10, -3.13372430E-14, -1.00187792E+04,
                       9.71477402E+00])),
        transport=gas_transport(geom='nonlinear',
                                diam=3.746,
                                well_depth=141.4,
                                polar=2.6,
                                rot_relax=13.0),
        note='ATcT3E')

species(name='CH3',
        atoms='C:1 H:3',
        thermo=(NASA([200.00, 1000.00],
                     [ 3.61264389E+00,  3.09209041E-03,  9.25474611E-07,
                      -1.65776770E-09,  6.07243533E-13,  1.63849955E+04,
                       1.79994780E+00]),
                NASA([1000.00, 6000.00],
                     [ 2.92198336E+00,  5.37478625E-03, -1.99748367E-06,
                       2.97584806E-10, -1.71860088E-14,  1.65446753E+04,
                       5.25396822E+00])),
        transport=gas_transport(geom='linear',
                                diam=3.8,
                                well_depth=144.0),
        note='ATcT3E')

species(name='CH2',
        atoms='C:1 H:2',
        thermo=(NASA([200.00, 1000.00],
                     [ 3.74842895E+00,  1.07655977E-03,  3.62462012E-06,
                      -4.46165519E-09,  1.95224874E-12,  4.58990472E+04,
                       1.63509483E+00]),
                NASA([1000.00, 6000.00],
                     [ 2.81412990E+00,  3.79513443E-03, -7.38424949E-07,
                       7.19948955E-11, -2.63188525E-15,  4.61859709E+04,
                       6.52945537E+00])),
        transport=gas_transport(geom='linear',
                                diam=3.8,
                                well_depth=144.0),
        note='(t)ATcT3E')

species(name='CH2(S)',
        atoms='C:1 H:2',
        thermo=(NASA([200.00, 1000.00],
                     [ 4.18489675E+00, -2.16396813E-03,  7.68523621E-06,
                      -5.98243427E-09,  1.67910304E-12,  5.03923371E+04,
                      -7.17772105E-01]),
                NASA([1000.00, 6000.00],
                     [ 2.86931299E+00,  3.39756979E-03, -1.00599964E-06,
                       1.50562822E-10, -8.61237607E-15,  5.06285244E+04,
                       5.53163503E+00])),
        transport=gas_transport(geom='linear',
                                diam=3.8,
                                well_depth=144.0),
        note='ATcT3E')

species(name='CH',
        atoms='C:1 H:1',
        thermo=(NASA([200.00, 1000.00],
                     [ 3.49602032E+00,  2.77423807E-04, -1.57433829E-06,
                       3.07038632E-09, -1.40468135E-12,  7.06500301E+04,
                       2.05802158E+00]),
                NASA([1000.00, 6000.00],
                     [ 2.74988924E+00,  1.36248089E-03, -2.71161485E-07,
                       2.47828427E-11, -1.18067699E-15,  7.08999411E+04,
                       6.13979299E+00])),
        transport=gas_transport(geom='linear',
                                diam=2.75,
                                well_depth=80.0),
        note='ATcT3E')

species(name='C',
        atoms='C:1',
        thermo=(NASA([200.00, 1000.00],
                     [ 2.55137539E+00, -2.99926279E-04,  6.79034717E-07,
                      -6.75577360E-10,  2.46000780E-13,  8.54693281E+04,
                       4.54305445E+00]),
                NASA([1000.00, 6000.00],
                     [ 2.60607421E+00, -1.96384226E-04,  1.06809851E-07,
                      -1.64080163E-11,  8.15424248E-16,  8.54378446E+04,
                       4.18935196E+00])),
        transport=gas_transport(geom='atom',
                                diam=3.298,
                                well_depth=71.4),
        note='ATcT3E')

species(name='CH3OH',
        atoms='C:1 H:4 O:1',
        thermo=(NASA([200.00, 1000.00],
                     [ 5.52796377E+00, -1.38922182E-02,  6.21715706E-05,
                      -6.82045334E-08,  2.52018995E-11, -2.55968085E+04,
                      -7.15601292E-01]),
                NASA([1000.00, 6000.00],
                     [ 3.71775547E+00,  1.00962072E-02, -3.53785207E-06,
                       5.61843105E-10, -3.32714390E-14, -2.60222319E+04,
                       4.04182781E+00])),
        transport=gas_transport(geom='nonlinear',
                                diam=3.626,
                                well_depth=481.8,
                                rot_relax=1.0),
        note='ATcT3E')

species(name='CH3O',
        atoms='C:1 H:3 O:1',
        thermo=(NASA([200.00, 1000.00],
                     [ 3.71622806E+00, -2.83500602E-03,  3.77227316E-05,
                      -4.73647579E-08,  1.86739253E-11,  1.35874167E+03,
                       6.55372649E+00]),
                NASA([1000.00, 6000.00],
                     [ 4.75205127E+00,  7.44944105E-03, -2.70076415E-06,
                       4.38793486E-10, -2.64006093E-14,  4.44370836E+02,
                      -1.93362162E+00])),
        transport=gas_transport(geom='nonlinear',
                                diam=3.69,
                                well_depth=417.0,
                                dipole=1.7,
                                rot_relax=2.0),
        note='ATcT3E')

species(name='CH2OH',
        atoms='C:1 H:3 O:1',
        thermo=(NASA([200.00, 1000.00],
                     [ 4.40537005E+00, -7.58358412E-04,  2.61926168E-05,
                      -3.46319300E-08,  1.40820009E-11, -3.44228423E+03,
                       3.60691223E+00]),
                NASA([1000.00, 2000.00],
                     [ 6.20503849E+00,  2.43665952E-03,  1.94377206E-06,
                      -1.61012603E-09,  3.14355256E-13, -4.25843527E+03,
                      -7.46070911E+00])),
        transport=gas_transport(geom='nonlinear',
                                diam=3.69,
                                well_depth=417.0,
                                dipole=1.7,
                                rot_relax=2.0),
        note='ATcT3E')

species(name='CH2O',
        atoms='C:1 H:2 O:1',
        thermo=(NASA([200.00, 1000.00],
                     [ 4.77187231E+00, -9.76266155E-03,  3.70121918E-05,
                      -3.76921617E-08,  1.31326646E-11, -1.43798106E+04,
                       6.96585679E-01]),
                NASA([1000.00, 6000.00],
                     [ 2.91332516E+00,  6.70039926E-03, -2.55520684E-06,
                       4.27795142E-10, -2.44072521E-14, -1.44622358E+04,
                       7.43822875E+00])),
        transport=gas_transport(geom='nonlinear',
                                diam=3.59,
                                well_depth=498.0,
                                rot_relax=2.0),
        note='ATcT3E')

species(name='HCOH',
        atoms='C:1 H:2 O:1',
        thermo=(NASA([200.00, 1000.00],
                     [ 4.65733258E+00, -9.53742306E-03,  4.04679152E-05,
                      -4.45317569E-08,  1.64761516E-11,  1.38615127E+04,
                       1.97860732E+00]),
                NASA([1000.00, 6000.00],
                     [ 3.65237205E+00,  5.55807060E-03, -1.97617181E-06,
                       3.16823378E-10, -1.88747598E-14,  1.35536156E+04,
                       4.22140840E+00])),
        transport=gas_transport(geom='nonlinear',
                                diam=3.59,
                                well_depth=498.0,
                                rot_relax=1.0),
        note='CH**-OHcisT9/09')

species(name='HCO',
        atoms='C:1 H:1 O:1',
        thermo=(NASA([200.00, 1000.00],
                     [ 3.97074749E+00, -1.49121608E-03,  9.54041776E-06,
                      -8.82720349E-09,  2.67645129E-12,  3.84203291E+03,
                       4.44660361E+00]),
                NASA([1000.00, 6000.00],
                     [ 3.85781113E+00,  2.64113950E-03, -7.44177294E-07,
                       1.23313230E-10, -8.88958718E-15,  3.61642883E+03,
                       3.92451197E+00])),
        transport=gas_transport(geom='nonlinear',
                                diam=3.59,
                                well_depth=498.0),
        note='ATcT3E')

species(name='HOCO',
        atoms='C:1 H:1 O:2',
        thermo=(NASA([200.00, 998.40],
                     [ 2.82191157E+00,  9.66218175E-03, -2.78560177E-06,
                      -4.12692493E-09,  2.61472072E-12, -2.35465218E+04,
                       1.14284719E+01]),
                NASA([998.40, 3000.00],
                     [ 4.63988707E+00,  5.66362726E-03, -2.67855311E-06,
                       6.17048884E-10, -5.60953531E-14, -2.40527335E+04,
                       1.90175132E+00])),
        transport=gas_transport(geom='nonlinear',
                                diam=3.59,
                                well_depth=498.0,
                                rot_relax=2.0),
        note='FAB/JAN05')

species(name='HOCHO',
        atoms='C:1 H:2 O:2',
        thermo=(NASA([200.00, 1000.00],
                     [ 3.89836160E+00, -3.55877950E-03,  3.55205380E-05,
                      -4.38499590E-08,  1.71077690E-11, -4.67785744E+04,
                       7.34953970E+00]),
                NASA([1000.00, 6000.00],
                     [ 4.61383160E+00,  6.44963640E-03, -2.29082510E-06,
                       3.67160470E-10, -2.18736750E-14, -4.53303180E+04,
                       8.47883830E-01])),
        transport=gas_transport(geom='nonlinear',
                                diam=3.626,
                                well_depth=481.8,
                                dipole=1.7,
                                rot_relax=1.0),
        note='FORMICACIDA5/14')

species(name='OCHO',
        atoms='C:1 H:1 O:2',
        thermo=(NASA([298.15, 1000.00],
                     [ 3.62860375E+00,  8.12496033E-03, -1.41560718E-06,
                      -3.27951824E-09,  1.61553900E-12, -1.67477889E+04,
                       7.83169538E+00]),
                NASA([1000.00, 3000.00],
                     [ 4.41052368E+00,  7.50888367E-03, -4.25889679E-06,
                       1.12761124E-09, -1.14144138E-13, -1.70297531E+04,
                       3.43148293E+00])),
        transport=gas_transport(geom='nonlinear',
                                diam=3.59,
                                well_depth=498.0,
                                rot_relax=2.0),
        note='1104')

species(name='HOCH2O',
        atoms='C:1 H:3 O:2',
        thermo=(NASA([298.00, 1000.00],
                     [-1.97308533E+00,  4.26372227E-02, -5.84444247E-05,
                       4.12218747E-08, -1.13584932E-11, -2.13827984E+04,
                       3.28690136E+01]),
                NASA([1000.00, 3000.00],
                     [ 3.64142330E+00,  1.46738744E-02, -8.24143161E-06,
                       2.24789889E-09, -2.38670785E-13, -2.22304345E+04,
                       7.15858335E+00])),
        transport=gas_transport(geom='nonlinear',
                                diam=4.41,
                                well_depth=470.6,
                                rot_relax=1.5),
        note='1311')

species(name='CH3OOH',
        atoms='C:1 H:4 O:2',
        thermo=(NASA([300.00, 1000.00],
                     [ 2.85836613E+00,  1.59700646E-02, -2.52104084E-06,
                      -5.73599921E-09,  2.80534675E-12, -1.68829666E+04,
                       1.28970185E+01]),
                NASA([1000.00, 3000.00],
                     [ 4.45931439E+00,  1.41050786E-02, -6.53177245E-06,
                       1.47662893E-09, -1.32512049E-13, -1.74300966E+04,
                       4.03866676E+00])),
        transport=gas_transport(geom='nonlinear',
                                diam=3.626,
                                well_depth=481.8,
                                rot_relax=1.0))

species(name='CH3OO',
        atoms='C:1 H:3 O:2',
        thermo=(NASA([300.00, 1000.00],
                     [ 2.93065328E+00,  8.68504133E-03,  8.80315108E-06,
                      -1.39560866E-08,  5.02939926E-12,  2.27483038E+02,
                       1.28754751E+01]),
                NASA([1000.00, 3000.00],
                     [ 2.88425280E+00,  1.40067710E-02, -6.88363514E-06,
                       1.63789865E-09, -1.53129010E-13, -2.00432571E+01,
                       1.18152986E+01])),
        transport=gas_transport(geom='nonlinear',
                                diam=3.69,
                                well_depth=417.0,
                                dipole=1.7,
                                rot_relax=2.0))

species(name='CH2OOH',
        atoms='C:1 H:3 O:2',
        thermo=(NASA([200.00, 1000.00],
                     [ 5.83126679E+00, -3.51771199E-03,  4.54550577E-05,
                      -5.66903320E-08,  2.21633070E-11,  6.06187060E+03,
                      -5.79143222E-01]),
                NASA([1000.00, 2500.00],
                     [ 6.98746029E+00,  9.00484259E-03, -3.24366912E-06,
                       5.24324826E-10, -3.13587080E-14,  5.01257769E+03,
                      -1.02619220E+01])),
        transport=gas_transport(geom='nonlinear',
                                diam=3.69,
                                well_depth=417.0,
                                dipole=1.7,
                                rot_relax=2.0))

species(name='C2H6',
        atoms='C:2 H:6',
        thermo=(NASA([200.00, 1000.00],
                     [ 4.14633324E+00, -4.42384448E-03,  5.70675847E-05,
                      -6.76419283E-08,  2.57224127E-11, -1.15145444E+04,
                       3.26635850E+00]),
                NASA([1000.00, 6000.00],
                     [ 3.97869303E+00,  1.54586738E-02, -5.37526584E-06,
                       8.59586664E-10, -5.11297726E-14, -1.24445501E+04,
                      -6.27169623E-01])),
        transport=gas_transport(geom='nonlinear',
                                diam=4.302,
                                well_depth=252.3,
                                rot_relax=1.5),
        note='ATcT3E')

species(name='C2H5',
        atoms='C:2 H:5',
        thermo=(NASA([200.00, 1000.00],
                     [ 4.11105107E+00, -2.63843875E-03,  4.60475495E-05,
                      -5.64273193E-08,  2.19027735E-11,  1.30013714E+04,
                       4.99417675E+00]),
                NASA([1000.00, 6000.00],
                     [ 4.41716986E+00,  1.22704143E-02, -4.34557774E-06,
                       6.94962736E-10, -4.13530760E-14,  1.21467900E+04,
                      -3.87435311E-01])),
        transport=gas_transport(geom='nonlinear',
                                diam=4.302,
                                well_depth=252.3,
                                rot_relax=1.5),
        note='ATcT3E')

species(name='C2H4',
        atoms='C:2 H:4',
        thermo=(NASA([200.00, 1000.00],
                     [ 3.65150713E+00, -5.35067462E-03,  5.16486118E-05,
                      -6.36868930E-08,  2.50743457E-11,  5.11450775E+03,
                       5.38560851E+00]),
                NASA([1000.00, 6000.00],
                     [ 4.14446010E+00,  1.02648277E-02, -3.61246996E-06,
                       5.74008727E-10, -3.39295896E-14,  4.19059383E+03,
                      -1.14778318E+00])),
        transport=gas_transport(geom='nonlinear',
                                diam=3.971,
                                well_depth=280.8,
                                rot_relax=1.5),
        note='ATcT3E')

species(name='C2H3',
        atoms='C:2 H:3',
        thermo=(NASA([200.00, 1000.00],
                     [ 3.12502174E+00,  2.35136801E-03,  2.36803425E-05,
                      -3.35092391E-08,  1.39444106E-11,  3.45243318E+04,
                       8.81537658E+00]),
                NASA([1000.00, 6000.00],
                     [ 4.37211201E+00,  7.46869010E-03, -2.64715570E-06,
                       4.22753257E-10, -2.44958401E-14,  3.38051964E+04,
                       4.28771726E-01])),
        transport=gas_transport(geom='nonlinear',
                                diam=4.1,
                                well_depth=209.0,
                                rot_relax=1.0),
        note='ATcT3E')

species(name='C2H2',
        atoms='C:2 H:2',
        thermo=(NASA([200.00, 1000.00],
                     [ 6.26263508E-01,  2.47263532E-02, -3.89555894E-05,
                       3.16484975E-08, -9.87351295E-12,  2.64555796E+04,
                       1.46968104E+01]),
                NASA([1000.00, 6000.00],
                     [ 4.66165760E+00,  4.88861739E-03, -1.61257351E-06,
                       2.48284097E-10, -1.39736824E-14,  2.57695270E+04,
                      -4.01062351E+00])),
        transport=gas_transport(geom='linear',
                                diam=4.1,
                                well_depth=209.0,
                                rot_relax=2.5),
        note='ATcT3E')

species(name='H2CC',
        atoms='C:2 H:2',
        thermo=(NASA([200.00, 1000.00],
                     [ 3.78897979E+00,  5.91794674E-03, -1.08086175E-06,
                      -1.85638085E-09,  1.06887466E-12,  4.81959632E+04,
                       3.71766330E+00]),
                NASA([1000.00, 6000.00],
                     [ 4.47847876E+00,  4.84707787E-03, -1.76213069E-06,
                       2.92788093E-10, -1.76554272E-14,  4.79490021E+04,
                      -7.84806167E-02])),
        transport=gas_transport(geom='linear',
                                diam=4.1,
                                well_depth=209.0,
                                rot_relax=2.5),
        note='ATcT3E')

species(name='C2H',
        atoms='C:2 H:1',
        thermo=(NASA([200.00, 1000.00],
                     [ 2.89867676E+00,  1.32988489E-02, -2.80733327E-05,